/*---------------------------------------------------------------------------*\
| =========                 |                                                 |
| \\      /  F ield         | OpenFOAM: The Open Source CFD Toolbox           |
|  \\    /   O peration     | Version:  v1906                                 |
|   \\  /    A nd           | Web:      www.OpenFOAM.com                      |
|    \\/     M anipulation  |                                                 |
\*---------------------------------------------------------------------------*/
Build  : v1906 OPENFOAM=1906
Arch   : "LSB;label=32;scalar=64"
Exec   : /opt/OpenFOAM/OpenFOAM-v1906/platforms/linux64GccDPInt32Opt/bin/simpleFoam
Date   : Jul 06 2020
Time   : 07:49:23
Host   : ff9b52d208ee
PID    : 4645
I/O    : uncollated
Case   : /home/ofuser/workingDir/my_software/my_openfoam/pitzDaily_with_Reynolds_stress
nProcs : 1
trapFpe: Floating point exception trapping enabled (FOAM_SIGFPE).
fileModificationChecking : Monitoring run-time modified files using timeStampMaster (fileModificationSkew 10)
allowSystemOperations : Allowing user-supplied system call operations

// * * * * * * * * * * * * * * * * * * * * * * * * * * * * * * * * * * * * * //
Create time

Create mesh for time = 0


SIMPLE: convergence criteria
    field p	 tolerance 0.01
    field U	 tolerance 0.001
    field "(k|epsilon|omega|f|v2|R)"	 tolerance 0.001

Reading field p

Reading field U

Reading/calculating face flux field phi

Selecting incompressible transport model Newtonian
Selecting turbulence model type RAS
Selecting RAS turbulence model LRR
RAS
{
    RASModel        LRR;
    turbulence      on;
    printCoeffs     on;
    couplingFactor  0;
    Cmu             0.09;
    C1              1.8;
    C2              0.6;
    Ceps1           1.44;
    Ceps2           1.92;
    Cs              0.25;
    Ceps            0.15;
    wallReflection  true;
    kappa           0.41;
    Cref1           0.5;
    Cref2           0.3;
}

No MRF models present

No finite volume options present

Starting time loop

streamLine streamlines:
    Employing velocity field U
    automatic track length specified through number of sub cycles : 5

Time = 1

smoothSolver:  Solving for Ux, Initial residual = 1, Final residual = 0.0871393, No Iterations 1
smoothSolver:  Solving for Uy, Initial residual = 0.472942, Final residual = 0.0292015, No Iterations 2
GAMG:  Solving for p, Initial residual = 1, Final residual = 0.0685093, No Iterations 17
time step continuity errors : sum local = 1.22393, global = 0.185752, cumulative = 0.185752
smoothSolver:  Solving for epsilon, Initial residual = 0.101861, Final residual = 0.00112113, No Iterations 2
Selecting patchDistMethod meshWave
smoothSolver:  Solving for Rxx, Initial residual = 1, Final residual = 0.0944147, No Iterations 1
smoothSolver:  Solving for Rxy, Initial residual = 1, Final residual = 0.0960044, No Iterations 1
smoothSolver:  Solving for Ryy, Initial residual = 1, Final residual = 0.0858385, No Iterations 1
smoothSolver:  Solving for Rzz, Initial residual = 1, Final residual = 0.091168, No Iterations 1
ExecutionTime = 0.24 s  ClockTime = 1 s

Time = 2

smoothSolver:  Solving for Ux, Initial residual = 0.72944, Final residual = 0.0592658, No Iterations 2
smoothSolver:  Solving for Uy, Initial residual = 0.334125, Final residual = 0.0272546, No Iterations 2
GAMG:  Solving for p, Initial residual = 0.091386, Final residual = 0.00876745, No Iterations 16
time step continuity errors : sum local = 37.6933, global = 0.142999, cumulative = 0.32875
smoothSolver:  Solving for epsilon, Initial residual = 0.0041086, Final residual = 0.000240141, No Iterations 1
smoothSolver:  Solving for Rxx, Initial residual = 0.24658, Final residual = 0.0193967, No Iterations 1
smoothSolver:  Solving for Rxy, Initial residual = 0.489398, Final residual = 0.0399999, No Iterations 1
smoothSolver:  Solving for Ryy, Initial residual = 0.119276, Final residual = 0.0101603, No Iterations 1
smoothSolver:  Solving for Rzz, Initial residual = 0.203892, Final residual = 0.0172003, No Iterations 1
ExecutionTime = 0.3 s  ClockTime = 1 s

Time = 3

smoothSolver:  Solving for Ux, Initial residual = 0.184397, Final residual = 0.0145759, No Iterations 2
smoothSolver:  Solving for Uy, Initial residual = 0.154291, Final residual = 0.0122895, No Iterations 2
GAMG:  Solving for p, Initial residual = 0.337749, Final residual = 0.0245985, No Iterations 5
time step continuity errors : sum local = 21.9641, global = 0.863648, cumulative = 1.1924
smoothSolver:  Solving for epsilon, Initial residual = 0.0146009, Final residual = 0.000913427, No Iterations 1
smoothSolver:  Solving for Rxx, Initial residual = 0.201094, Final residual = 0.0132984, No Iterations 1
smoothSolver:  Solving for Rxy, Initial residual = 0.175124, Final residual = 0.0160243, No Iterations 1
smoothSolver:  Solving for Ryy, Initial residual = 0.0711154, Final residual = 0.00607465, No Iterations 1
smoothSolver:  Solving for Rzz, Initial residual = 0.135271, Final residual = 0.00984325, No Iterations 1
ExecutionTime = 0.35 s  ClockTime = 1 s

Time = 4

smoothSolver:  Solving for Ux, Initial residual = 0.0442288, Final residual = 0.00338767, No Iterations 2
smoothSolver:  Solving for Uy, Initial residual = 0.055691, Final residual = 0.00417835, No Iterations 2
GAMG:  Solving for p, Initial residual = 0.217311, Final residual = 0.0197823, No Iterations 10
time step continuity errors : sum local = 9.62517, global = 0.240298, cumulative = 1.4327
smoothSolver:  Solving for epsilon, Initial residual = 0.0165478, Final residual = 0.000882921, No Iterations 1
smoothSolver:  Solving for Rxx, Initial residual = 0.0838707, Final residual = 0.00571368, No Iterations 1
smoothSolver:  Solving for Rxy, Initial residual = 0.1104, Final residual = 0.0101252, No Iterations 1
smoothSolver:  Solving for Ryy, Initial residual = 0.0657215, Final residual = 0.00585702, No Iterations 1
smoothSolver:  Solving for Rzz, Initial residual = 0.142348, Final residual = 0.01031, No Iterations 1
ExecutionTime = 0.4 s  ClockTime = 1 s

Time = 5

smoothSolver:  Solving for Ux, Initial residual = 0.0197719, Final residual = 0.00139848, No Iterations 2
smoothSolver:  Solving for Uy, Initial residual = 0.0381886, Final residual = 0.002771, No Iterations 2
GAMG:  Solving for p, Initial residual = 0.214094, Final residual = 0.0196326, No Iterations 6
time step continuity errors : sum local = 8.22216, global = -0.0136486, cumulative = 1.41905
smoothSolver:  Solving for epsilon, Initial residual = 0.0224281, Final residual = 0.00102115, No Iterations 1
smoothSolver:  Solving for Rxx, Initial residual = 0.0399788, Final residual = 0.00237104, No Iterations 1
smoothSolver:  Solving for Rxy, Initial residual = 0.0686918, Final residual = 0.0063863, No Iterations 1
smoothSolver:  Solving for Ryy, Initial residual = 0.0620572, Final residual = 0.00527289, No Iterations 1
smoothSolver:  Solving for Rzz, Initial residual = 0.0520177, Final residual = 0.00327278, No Iterations 1
ExecutionTime = 0.44 s  ClockTime = 1 s

Time = 6

smoothSolver:  Solving for Ux, Initial residual = 0.014513, Final residual = 0.000999457, No Iterations 2
smoothSolver:  Solving for Uy, Initial residual = 0.0215875, Final residual = 0.00137421, No Iterations 2
GAMG:  Solving for p, Initial residual = 0.192124, Final residual = 0.0183152, No Iterations 7
time step continuity errors : sum local = 7.24479, global = 0.0438134, cumulative = 1.46286
smoothSolver:  Solving for epsilon, Initial residual = 0.0215106, Final residual = 0.000819396, No Iterations 1
smoothSolver:  Solving for Rxx, Initial residual = 0.0240518, Final residual = 0.00136487, No Iterations 1
smoothSolver:  Solving for Rxy, Initial residual = 0.0515805, Final residual = 0.00477931, No Iterations 1
smoothSolver:  Solving for Ryy, Initial residual = 0.06449, Final residual = 0.00529295, No Iterations 1
smoothSolver:  Solving for Rzz, Initial residual = 0.0297012, Final residual = 0.00173102, No Iterations 1
ExecutionTime = 0.49 s  ClockTime = 1 s

Time = 7

smoothSolver:  Solving for Ux, Initial residual = 0.00640895, Final residual = 0.000333123, No Iterations 2
smoothSolver:  Solving for Uy, Initial residual = 0.013719, Final residual = 0.000788724, No Iterations 2
GAMG:  Solving for p, Initial residual = 0.137819, Final residual = 0.0137681, No Iterations 10
time step continuity errors : sum local = 5.3528, global = 0.0311312, cumulative = 1.49399
smoothSolver:  Solving for epsilon, Initial residual = 0.0197835, Final residual = 0.000522113, No Iterations 1
smoothSolver:  Solving for Rxx, Initial residual = 0.0164405, Final residual = 0.000867047, No Iterations 1
smoothSolver:  Solving for Rxy, Initial residual = 0.0412335, Final residual = 0.00372283, No Iterations 1
smoothSolver:  Solving for Ryy, Initial residual = 0.0606848, Final residual = 0.00500166, No Iterations 1
smoothSolver:  Solving for Rzz, Initial residual = 0.019703, Final residual = 0.00104804, No Iterations 1
ExecutionTime = 0.54 s  ClockTime = 1 s

Time = 8

smoothSolver:  Solving for Ux, Initial residual = 0.00661382, Final residual = 0.000351758, No Iterations 2
smoothSolver:  Solving for Uy, Initial residual = 0.0119687, Final residual = 0.000691439, No Iterations 2
GAMG:  Solving for p, Initial residual = 0.101989, Final residual = 0.00977893, No Iterations 11
time step continuity errors : sum local = 3.90349, global = 0.0231652, cumulative = 1.51716
smoothSolver:  Solving for epsilon, Initial residual = 0.0129077, Final residual = 0.000259601, No Iterations 1
smoothSolver:  Solving for Rxx, Initial residual = 0.010832, Final residual = 0.000609166, No Iterations 1
smoothSolver:  Solving for Rxy, Initial residual = 0.0342186, Final residual = 0.00316893, No Iterations 1
smoothSolver:  Solving for Ryy, Initial residual = 0.0636288, Final residual = 0.00521548, No Iterations 1
smoothSolver:  Solving for Rzz, Initial residual = 0.0132208, Final residual = 0.000722041, No Iterations 1
ExecutionTime = 0.59 s  ClockTime = 1 s

Time = 9

smoothSolver:  Solving for Ux, Initial residual = 0.00631253, Final residual = 0.000335645, No Iterations 2
smoothSolver:  Solving for Uy, Initial residual = 0.0114109, Final residual = 0.000670069, No Iterations 2
GAMG:  Solving for p, Initial residual = 0.0860872, Final residual = 0.0080088, No Iterations 9
time step continuity errors : sum local = 3.27216, global = 0.019841, cumulative = 1.537
smoothSolver:  Solving for epsilon, Initial residual = 0.00809997, Final residual = 0.000161072, No Iterations 1
smoothSolver:  Solving for Rxx, Initial residual = 0.00808779, Final residual = 0.000463668, No Iterations 1
smoothSolver:  Solving for Rxy, Initial residual = 0.0296796, Final residual = 0.00275338, No Iterations 1
smoothSolver:  Solving for Ryy, Initial residual = 0.0634291, Final residual = 0.00520528, No Iterations 1
smoothSolver:  Solving for Rzz, Initial residual = 0.00939453, Final residual = 0.000527492, No Iterations 1
ExecutionTime = 0.64 s  ClockTime = 1 s

Time = 10

smoothSolver:  Solving for Ux, Initial residual = 0.00605318, Final residual = 0.000320509, No Iterations 2
smoothSolver:  Solving for Uy, Initial residual = 0.01117, Final residual = 0.000667031, No Iterations 2
GAMG:  Solving for p, Initial residual = 0.0766148, Final residual = 0.0074353, No Iterations 6
time step continuity errors : sum local = 3.0867, global = 0.0213008, cumulative = 1.5583
smoothSolver:  Solving for epsilon, Initial residual = 0.00626312, Final residual = 0.000117646, No Iterations 1
smoothSolver:  Solving for Rxx, Initial residual = 0.00674822, Final residual = 0.000387387, No Iterations 1
smoothSolver:  Solving for Rxy, Initial residual = 0.026289, Final residual = 0.00247267, No Iterations 1
smoothSolver:  Solving for Ryy, Initial residual = 0.0644907, Final residual = 0.00531206, No Iterations 1
smoothSolver:  Solving for Rzz, Initial residual = 0.00768551, Final residual = 0.00043252, No Iterations 1
ExecutionTime = 0.68 s  ClockTime = 1 s

Time = 11

smoothSolver:  Solving for Ux, Initial residual = 0.00604637, Final residual = 0.000319081, No Iterations 2
smoothSolver:  Solving for Uy, Initial residual = 0.0110295, Final residual = 0.000660772, No Iterations 2
GAMG:  Solving for p, Initial residual = 0.070054, Final residual = 0.00628066, No Iterations 5
time step continuity errors : sum local = 2.63988, global = 0.0207671, cumulative = 1.57907
smoothSolver:  Solving for epsilon, Initial residual = 0.00609743, Final residual = 0.00010196, No Iterations 1
smoothSolver:  Solving for Rxx, Initial residual = 0.00605846, Final residual = 0.000350156, No Iterations 1
smoothSolver:  Solving for Rxy, Initial residual = 0.0253819, Final residual = 0.00229635, No Iterations 1
smoothSolver:  Solving for Ryy, Initial residual = 0.0629018, Final residual = 0.00524287, No Iterations 1
smoothSolver:  Solving for Rzz, Initial residual = 0.00673403, Final residual = 0.000380262, No Iterations 1
ExecutionTime = 0.72 s  ClockTime = 1 s

Time = 12

smoothSolver:  Solving for Ux, Initial residual = 0.00605, Final residual = 0.000319043, No Iterations 2
smoothSolver:  Solving for Uy, Initial residual = 0.0108391, Final residual = 0.000643736, No Iterations 2
GAMG:  Solving for p, Initial residual = 0.0681829, Final residual = 0.00629591, No Iterations 3
time step continuity errors : sum local = 2.66306, global = 0.00452621, cumulative = 1.58359
smoothSolver:  Solving for epsilon, Initial residual = 0.00382268, Final residual = 8.70535e-05, No Iterations 1
smoothSolver:  Solving for Rxx, Initial residual = 0.00514643, Final residual = 0.00031229, No Iterations 1
smoothSolver:  Solving for Rxy, Initial residual = 0.0228202, Final residual = 0.00209804, No Iterations 1
smoothSolver:  Solving for Ryy, Initial residual = 0.0595346, Final residual = 0.00503087, No Iterations 1
smoothSolver:  Solving for Rzz, Initial residual = 0.0056035, Final residual = 0.000330927, No Iterations 1
ExecutionTime = 0.77 s  ClockTime = 1 s

Time = 13

smoothSolver:  Solving for Ux, Initial residual = 0.00616745, Final residual = 0.000325952, No Iterations 2
smoothSolver:  Solving for Uy, Initial residual = 0.0107578, Final residual = 0.000632111, No Iterations 2
GAMG:  Solving for p, Initial residual = 0.0661917, Final residual = 0.00567674, No Iterations 4
time step continuity errors : sum local = 2.4065, global = 0.044456, cumulative = 1.62805
smoothSolver:  Solving for epsilon, Initial residual = 0.00474108, Final residual = 8.69141e-05, No Iterations 1
smoothSolver:  Solving for Rxx, Initial residual = 0.00479498, Final residual = 0.000294445, No Iterations 1
smoothSolver:  Solving for Rxy, Initial residual = 0.0209875, Final residual = 0.00195186, No Iterations 1
smoothSolver:  Solving for Ryy, Initial residual = 0.0556672, Final residual = 0.00465056, No Iterations 1
smoothSolver:  Solving for Rzz, Initial residual = 0.00496346, Final residual = 0.000304919, No Iterations 1
ExecutionTime = 0.81 s  ClockTime = 2 s

Time = 14

smoothSolver:  Solving for Ux, Initial residual = 0.00613318, Final residual = 0.000326157, No Iterations 2
smoothSolver:  Solving for Uy, Initial residual = 0.0106248, Final residual = 0.000621137, No Iterations 2
GAMG:  Solving for p, Initial residual = 0.0663788, Final residual = 0.00620235, No Iterations 3
time step continuity errors : sum local = 2.63601, global = 0.00323387, cumulative = 1.63128
smoothSolver:  Solving for epsilon, Initial residual = 0.00386991, Final residual = 8.23999e-05, No Iterations 1
smoothSolver:  Solving for Rxx, Initial residual = 0.00469633, Final residual = 0.000285488, No Iterations 1
smoothSolver:  Solving for Rxy, Initial residual = 0.0202269, Final residual = 0.00187479, No Iterations 1
smoothSolver:  Solving for Ryy, Initial residual = 0.0490259, Final residual = 0.00422247, No Iterations 1
smoothSolver:  Solving for Rzz, Initial residual = 0.004791, Final residual = 0.00029152, No Iterations 1
ExecutionTime = 0.85 s  ClockTime = 2 s

Time = 15

smoothSolver:  Solving for Ux, Initial residual = 0.00606872, Final residual = 0.000331128, No Iterations 2
smoothSolver:  Solving for Uy, Initial residual = 0.0104786, Final residual = 0.000615231, No Iterations 2
GAMG:  Solving for p, Initial residual = 0.0653545, Final residual = 0.00615141, No Iterations 2
time step continuity errors : sum local = 2.6173, global = 0.0463379, cumulative = 1.67762
smoothSolver:  Solving for epsilon, Initial residual = 0.00396851, Final residual = 8.3937e-05, No Iterations 1
smoothSolver:  Solving for Rxx, Initial residual = 0.00459052, Final residual = 0.000278857, No Iterations 1
smoothSolver:  Solving for Rxy, Initial residual = 0.0194808, Final residual = 0.00180858, No Iterations 1
smoothSolver:  Solving for Ryy, Initial residual = 0.0455736, Final residual = 0.00394214, No Iterations 1
smoothSolver:  Solving for Rzz, Initial residual = 0.00462392, Final residual = 0.000281776, No Iterations 1
ExecutionTime = 0.89 s  ClockTime = 2 s

Time = 16

smoothSolver:  Solving for Ux, Initial residual = 0.00592813, Final residual = 0.000329961, No Iterations 2
smoothSolver:  Solving for Uy, Initial residual = 0.0104318, Final residual = 0.000627053, No Iterations 2
GAMG:  Solving for p, Initial residual = 0.0628956, Final residual = 0.00524037, No Iterations 2
time step continuity errors : sum local = 2.22866, global = 0.068627, cumulative = 1.74625
smoothSolver:  Solving for epsilon, Initial residual = 0.00406972, Final residual = 8.90184e-05, No Iterations 1
smoothSolver:  Solving for Rxx, Initial residual = 0.00455714, Final residual = 0.000277579, No Iterations 1
smoothSolver:  Solving for Rxy, Initial residual = 0.0189717, Final residual = 0.00175444, No Iterations 1
smoothSolver:  Solving for Ryy, Initial residual = 0.0430547, Final residual = 0.00373732, No Iterations 1
smoothSolver:  Solving for Rzz, Initial residual = 0.00450382, Final residual = 0.000276223, No Iterations 1
ExecutionTime = 0.93 s  ClockTime = 2 s

Time = 17

smoothSolver:  Solving for Ux, Initial residual = 0.00585496, Final residual = 0.000327471, No Iterations 2
smoothSolver:  Solving for Uy, Initial residual = 0.0104212, Final residual = 0.000635166, No Iterations 2
GAMG:  Solving for p, Initial residual = 0.060764, Final residual = 0.00600949, No Iterations 2
time step continuity errors : sum local = 2.55749, global = 0.0971585, cumulative = 1.84341
smoothSolver:  Solving for epsilon, Initial residual = 0.0047715, Final residual = 9.80822e-05, No Iterations 1
smoothSolver:  Solving for Rxx, Initial residual = 0.00450983, Final residual = 0.000279201, No Iterations 1
smoothSolver:  Solving for Rxy, Initial residual = 0.0185302, Final residual = 0.00170809, No Iterations 1
smoothSolver:  Solving for Ryy, Initial residual = 0.0413513, Final residual = 0.0035888, No Iterations 1
smoothSolver:  Solving for Rzz, Initial residual = 0.00442912, Final residual = 0.000275007, No Iterations 1
ExecutionTime = 0.97 s  ClockTime = 2 s

Time = 18

smoothSolver:  Solving for Ux, Initial residual = 0.00577535, Final residual = 0.000322647, No Iterations 2
smoothSolver:  Solving for Uy, Initial residual = 0.0103261, Final residual = 0.000631376, No Iterations 2
GAMG:  Solving for p, Initial residual = 0.0597066, Final residual = 0.0052232, No Iterations 4
time step continuity errors : sum local = 2.22275, global = 0.077815, cumulative = 1.92122
smoothSolver:  Solving for epsilon, Initial residual = 0.00544077, Final residual = 0.000106982, No Iterations 1
smoothSolver:  Solving for Rxx, Initial residual = 0.00450257, Final residual = 0.000281272, No Iterations 1
smoothSolver:  Solving for Rxy, Initial residual = 0.0181161, Final residual = 0.00166254, No Iterations 1
smoothSolver:  Solving for Ryy, Initial residual = 0.0400421, Final residual = 0.00347201, No Iterations 1
smoothSolver:  Solving for Rzz, Initial residual = 0.00438651, Final residual = 0.000274382, No Iterations 1
ExecutionTime = 1.02 s  ClockTime = 2 s

Time = 19

smoothSolver:  Solving for Ux, Initial residual = 0.00570148, Final residual = 0.000320285, No Iterations 2
smoothSolver:  Solving for Uy, Initial residual = 0.0101849, Final residual = 0.000617141, No Iterations 2
GAMG:  Solving for p, Initial residual = 0.0590085, Final residual = 0.00528855, No Iterations 3
time step continuity errors : sum local = 2.25056, global = -0.050484, cumulative = 1.87074
smoothSolver:  Solving for epsilon, Initial residual = 0.00574999, Final residual = 0.000113726, No Iterations 1
smoothSolver:  Solving for Rxx, Initial residual = 0.00445509, Final residual = 0.000282048, No Iterations 1
smoothSolver:  Solving for Rxy, Initial residual = 0.0176959, Final residual = 0.00161828, No Iterations 1
smoothSolver:  Solving for Ryy, Initial residual = 0.0389455, Final residual = 0.0033817, No Iterations 1
smoothSolver:  Solving for Rzz, Initial residual = 0.00436349, Final residual = 0.000274839, No Iterations 1
ExecutionTime = 1.06 s  ClockTime = 2 s

Time = 20

smoothSolver:  Solving for Ux, Initial residual = 0.00557702, Final residual = 0.000313826, No Iterations 2
smoothSolver:  Solving for Uy, Initial residual = 0.00987362, Final residual = 0.000597721, No Iterations 2
GAMG:  Solving for p, Initial residual = 0.0568432, Final residual = 0.00522233, No Iterations 4
time step continuity errors : sum local = 2.22581, global = 0.0207879, cumulative = 1.89153
smoothSolver:  Solving for epsilon, Initial residual = 0.00574812, Final residual = 0.000117852, No Iterations 1
smoothSolver:  Solving for Rxx, Initial residual = 0.00438531, Final residual = 0.00028424, No Iterations 1
smoothSolver:  Solving for Rxy, Initial residual = 0.0171162, Final residual = 0.00156679, No Iterations 1
smoothSolver:  Solving for Ryy, Initial residual = 0.0379301, Final residual = 0.00328658, No Iterations 1
smoothSolver:  Solving for Rzz, Initial residual = 0.00430641, Final residual = 0.000277042, No Iterations 1
ExecutionTime = 1.11 s  ClockTime = 2 s

Time = 21

smoothSolver:  Solving for Ux, Initial residual = 0.00538509, Final residual = 0.00030856, No Iterations 2
smoothSolver:  Solving for Uy, Initial residual = 0.00958445, Final residual = 0.000582644, No Iterations 2
GAMG:  Solving for p, Initial residual = 0.0541232, Final residual = 0.00518825, No Iterations 3
time step continuity errors : sum local = 2.20522, global = -0.0350139, cumulative = 1.85651
smoothSolver:  Solving for epsilon, Initial residual = 0.00544, Final residual = 0.000120877, No Iterations 1
smoothSolver:  Solving for Rxx, Initial residual = 0.00430007, Final residual = 0.000284497, No Iterations 1
smoothSolver:  Solving for Rxy, Initial residual = 0.0165396, Final residual = 0.00151755, No Iterations 1
smoothSolver:  Solving for Ryy, Initial residual = 0.0365123, Final residual = 0.00317741, No Iterations 1
smoothSolver:  Solving for Rzz, Initial residual = 0.0042465, Final residual = 0.000278025, No Iterations 1
ExecutionTime = 1.15 s  ClockTime = 2 s

Time = 22

smoothSolver:  Solving for Ux, Initial residual = 0.005184, Final residual = 0.000303827, No Iterations 2
smoothSolver:  Solving for Uy, Initial residual = 0.00938338, Final residual = 0.000573065, No Iterations 2
GAMG:  Solving for p, Initial residual = 0.0512441, Final residual = 0.00472158, No Iterations 3
time step continuity errors : sum local = 1.99736, global = -0.0358847, cumulative = 1.82063
smoothSolver:  Solving for epsilon, Initial residual = 0.00505912, Final residual = 0.000124021, No Iterations 1
smoothSolver:  Solving for Rxx, Initial residual = 0.00419962, Final residual = 0.000284747, No Iterations 1
smoothSolver:  Solving for Rxy, Initial residual = 0.0159717, Final residual = 0.0014646, No Iterations 1
smoothSolver:  Solving for Ryy, Initial residual = 0.0346439, Final residual = 0.00304077, No Iterations 1
smoothSolver:  Solving for Rzz, Initial residual = 0.0041684, Final residual = 0.000279655, No Iterations 1
ExecutionTime = 1.19 s  ClockTime = 2 s

Time = 23

smoothSolver:  Solving for Ux, Initial residual = 0.00498728, Final residual = 0.00029517, No Iterations 2
smoothSolver:  Solving for Uy, Initial residual = 0.00911224, Final residual = 0.000558045, No Iterations 2
GAMG:  Solving for p, Initial residual = 0.0494511, Final residual = 0.00405575, No Iterations 3
time step continuity errors : sum local = 1.70257, global = -0.0276779, cumulative = 1.79295
smoothSolver:  Solving for epsilon, Initial residual = 0.00467369, Final residual = 0.000125042, No Iterations 1
smoothSolver:  Solving for Rxx, Initial residual = 0.00412061, Final residual = 0.00028519, No Iterations 1
smoothSolver:  Solving for Rxy, Initial residual = 0.0153986, Final residual = 0.00141852, No Iterations 1
smoothSolver:  Solving for Ryy, Initial residual = 0.0326745, Final residual = 0.00289252, No Iterations 1
smoothSolver:  Solving for Rzz, Initial residual = 0.00410634, Final residual = 0.000281298, No Iterations 1
ExecutionTime = 1.23 s  ClockTime = 2 s

Time = 24

smoothSolver:  Solving for Ux, Initial residual = 0.00480328, Final residual = 0.000286485, No Iterations 2
smoothSolver:  Solving for Uy, Initial residual = 0.00881065, Final residual = 0.000538992, No Iterations 2
GAMG:  Solving for p, Initial residual = 0.0478808, Final residual = 0.0036533, No Iterations 3
time step continuity errors : sum local = 1.51707, global = -0.0138067, cumulative = 1.77914
smoothSolver:  Solving for epsilon, Initial residual = 0.00425614, Final residual = 0.000126844, No Iterations 1
smoothSolver:  Solving for Rxx, Initial residual = 0.004038, Final residual = 0.000285524, No Iterations 1
smoothSolver:  Solving for Rxy, Initial residual = 0.014841, Final residual = 0.00137009, No Iterations 1
smoothSolver:  Solving for Ryy, Initial residual = 0.0306949, Final residual = 0.00272925, No Iterations 1
smoothSolver:  Solving for Rzz, Initial residual = 0.00405604, Final residual = 0.000283291, No Iterations 1
ExecutionTime = 1.27 s  ClockTime = 2 s

Time = 25

smoothSolver:  Solving for Ux, Initial residual = 0.00466102, Final residual = 0.000277526, No Iterations 2
smoothSolver:  Solving for Uy, Initial residual = 0.00852018, Final residual = 0.000519317, No Iterations 2
GAMG:  Solving for p, Initial residual = 0.046543, Final residual = 0.00374737, No Iterations 3
time step continuity errors : sum local = 1.53469, global = -0.000510307, cumulative = 1.77863
smoothSolver:  Solving for epsilon, Initial residual = 0.00396382, Final residual = 0.00012667, No Iterations 1
smoothSolver:  Solving for Rxx, Initial residual = 0.00394168, Final residual = 0.000283769, No Iterations 1
smoothSolver:  Solving for Rxy, Initial residual = 0.0143159, Final residual = 0.00132648, No Iterations 1
smoothSolver:  Solving for Ryy, Initial residual = 0.0286348, Final residual = 0.00256366, No Iterations 1
smoothSolver:  Solving for Rzz, Initial residual = 0.00398951, Final residual = 0.000283179, No Iterations 1
ExecutionTime = 1.31 s  ClockTime = 2 s

Time = 26

smoothSolver:  Solving for Ux, Initial residual = 0.00451414, Final residual = 0.000270248, No Iterations 2
smoothSolver:  Solving for Uy, Initial residual = 0.00827569, Final residual = 0.000501641, No Iterations 2
GAMG:  Solving for p, Initial residual = 0.0447087, Final residual = 0.00361921, No Iterations 3
time step continuity errors : sum local = 1.46048, global = 0.00848243, cumulative = 1.78711
smoothSolver:  Solving for epsilon, Initial residual = 0.00370767, Final residual = 0.000126407, No Iterations 1
smoothSolver:  Solving for Rxx, Initial residual = 0.00383739, Final residual = 0.000282138, No Iterations 1
smoothSolver:  Solving for Rxy, Initial residual = 0.013793, Final residual = 0.00128357, No Iterations 1
smoothSolver:  Solving for Ryy, Initial residual = 0.0265873, Final residual = 0.00240447, No Iterations 1
smoothSolver:  Solving for Rzz, Initial residual = 0.00391059, Final residual = 0.000283493, No Iterations 1
ExecutionTime = 1.36 s  ClockTime = 2 s

Time = 27

smoothSolver:  Solving for Ux, Initial residual = 0.00438518, Final residual = 0.000265234, No Iterations 2
smoothSolver:  Solving for Uy, Initial residual = 0.00800833, Final residual = 0.000482498, No Iterations 2
GAMG:  Solving for p, Initial residual = 0.0427883, Final residual = 0.00413401, No Iterations 2
time step continuity errors : sum local = 1.64363, global = 0.0130423, cumulative = 1.80016
smoothSolver:  Solving for epsilon, Initial residual = 0.00350073, Final residual = 0.000127717, No Iterations 1
smoothSolver:  Solving for Rxx, Initial residual = 0.00373854, Final residual = 0.00028027, No Iterations 1
smoothSolver:  Solving for Rxy, Initial residual = 0.0133396, Final residual = 0.00124634, No Iterations 1
smoothSolver:  Solving for Ryy, Initial residual = 0.024691, Final residual = 0.00225304, No Iterations 1
smoothSolver:  Solving for Rzz, Initial residual = 0.00383434, Final residual = 0.00028331, No Iterations 1
ExecutionTime = 1.4 s  ClockTime = 2 s

Time = 28

smoothSolver:  Solving for Ux, Initial residual = 0.00428473, Final residual = 0.000262717, No Iterations 2
smoothSolver:  Solving for Uy, Initial residual = 0.00781458, Final residual = 0.000470072, No Iterations 2
GAMG:  Solving for p, Initial residual = 0.0410141, Final residual = 0.0040387, No Iterations 2
time step continuity errors : sum local = 1.58429, global = 0.00644237, cumulative = 1.8066
smoothSolver:  Solving for epsilon, Initial residual = 0.00329777, Final residual = 0.000127397, No Iterations 1
smoothSolver:  Solving for Rxx, Initial residual = 0.00364944, Final residual = 0.000279309, No Iterations 1
smoothSolver:  Solving for Rxy, Initial residual = 0.0129232, Final residual = 0.00121256, No Iterations 1
smoothSolver:  Solving for Ryy, Initial residual = 0.022892, Final residual = 0.00210571, No Iterations 1
smoothSolver:  Solving for Rzz, Initial residual = 0.00375859, Final residual = 0.000283439, No Iterations 1
ExecutionTime = 1.44 s  ClockTime = 2 s

Time = 29

smoothSolver:  Solving for Ux, Initial residual = 0.00419147, Final residual = 0.000259558, No Iterations 2
smoothSolver:  Solving for Uy, Initial residual = 0.00757041, Final residual = 0.00045423, No Iterations 2
GAMG:  Solving for p, Initial residual = 0.0393125, Final residual = 0.00355289, No Iterations 2
time step continuity errors : sum local = 1.37754, global = 0.00437161, cumulative = 1.81097
smoothSolver:  Solving for epsilon, Initial residual = 0.00312022, Final residual = 0.000128208, No Iterations 1
smoothSolver:  Solving for Rxx, Initial residual = 0.00357677, Final residual = 0.000278236, No Iterations 1
smoothSolver:  Solving for Rxy, Initial residual = 0.0125083, Final residual = 0.00118335, No Iterations 1
smoothSolver:  Solving for Ryy, Initial residual = 0.0212568, Final residual = 0.00197243, No Iterations 1
smoothSolver:  Solving for Rzz, Initial residual = 0.00369403, Final residual = 0.000283311, No Iterations 1
ExecutionTime = 1.48 s  ClockTime = 2 s

Time = 30

smoothSolver:  Solving for Ux, Initial residual = 0.00409652, Final residual = 0.000255206, No Iterations 2
smoothSolver:  Solving for Uy, Initial residual = 0.00734271, Final residual = 0.000439552, No Iterations 2
GAMG:  Solving for p, Initial residual = 0.0378995, Final residual = 0.00307459, No Iterations 2
time step continuity errors : sum local = 1.1784, global = 0.00424596, cumulative = 1.81522
smoothSolver:  Solving for epsilon, Initial residual = 0.00296942, Final residual = 0.000128337, No Iterations 1
smoothSolver:  Solving for Rxx, Initial residual = 0.00350303, Final residual = 0.00027785, No Iterations 1
smoothSolver:  Solving for Rxy, Initial residual = 0.0121617, Final residual = 0.00115545, No Iterations 1
smoothSolver:  Solving for Ryy, Initial residual = 0.0197661, Final residual = 0.00184569, No Iterations 1
smoothSolver:  Solving for Rzz, Initial residual = 0.0036359, Final residual = 0.000284066, No Iterations 1
ExecutionTime = 1.53 s  ClockTime = 2 s

Time = 31

smoothSolver:  Solving for Ux, Initial residual = 0.00401561, Final residual = 0.00025121, No Iterations 2
smoothSolver:  Solving for Uy, Initial residual = 0.0071177, Final residual = 0.000424953, No Iterations 2
GAMG:  Solving for p, Initial residual = 0.0365233, Final residual = 0.00289078, No Iterations 2
time step continuity errors : sum local = 1.09579, global = 0.0068684, cumulative = 1.82209
smoothSolver:  Solving for epsilon, Initial residual = 0.00287679, Final residual = 0.000129987, No Iterations 1
smoothSolver:  Solving for Rxx, Initial residual = 0.00345624, Final residual = 0.00027691, No Iterations 1
smoothSolver:  Solving for Rxy, Initial residual = 0.0118445, Final residual = 0.0011289, No Iterations 1
smoothSolver:  Solving for Ryy, Initial residual = 0.0184163, Final residual = 0.00172656, No Iterations 1
smoothSolver:  Solving for Rzz, Initial residual = 0.00359718, Final residual = 0.000284126, No Iterations 1
ExecutionTime = 1.57 s  ClockTime = 2 s

Time = 32

smoothSolver:  Solving for Ux, Initial residual = 0.00393287, Final residual = 0.000246587, No Iterations 2
smoothSolver:  Solving for Uy, Initial residual = 0.00689257, Final residual = 0.00041273, No Iterations 2
GAMG:  Solving for p, Initial residual = 0.0351163, Final residual = 0.00270841, No Iterations 2
time step continuity errors : sum local = 1.01204, global = 0.00606523, cumulative = 1.82815
smoothSolver:  Solving for epsilon, Initial residual = 0.00280698, Final residual = 0.000129513, No Iterations 1
smoothSolver:  Solving for Rxx, Initial residual = 0.0034172, Final residual = 0.000277782, No Iterations 1
smoothSolver:  Solving for Rxy, Initial residual = 0.01157, Final residual = 0.00110658, No Iterations 1
smoothSolver:  Solving for Ryy, Initial residual = 0.0172169, Final residual = 0.0016189, No Iterations 1
smoothSolver:  Solving for Rzz, Initial residual = 0.00356605, Final residual = 0.000285622, No Iterations 1
ExecutionTime = 1.61 s  ClockTime = 2 s

Time = 33

smoothSolver:  Solving for Ux, Initial residual = 0.00384917, Final residual = 0.000241815, No Iterations 2
smoothSolver:  Solving for Uy, Initial residual = 0.00668803, Final residual = 0.000399698, No Iterations 2
GAMG:  Solving for p, Initial residual = 0.0338732, Final residual = 0.00247199, No Iterations 2
time step continuity errors : sum local = 0.910082, global = 0.0047582, cumulative = 1.83291
smoothSolver:  Solving for epsilon, Initial residual = 0.00274307, Final residual = 0.000129506, No Iterations 1
smoothSolver:  Solving for Rxx, Initial residual = 0.00338732, Final residual = 0.000278661, No Iterations 1
smoothSolver:  Solving for Rxy, Initial residual = 0.0113279, Final residual = 0.00108596, No Iterations 1
smoothSolver:  Solving for Ryy, Initial residual = 0.0161032, Final residual = 0.00152268, No Iterations 1
smoothSolver:  Solving for Rzz, Initial residual = 0.00354555, Final residual = 0.000287565, No Iterations 1
ExecutionTime = 1.65 s  ClockTime = 3 s

Time = 34

smoothSolver:  Solving for Ux, Initial residual = 0.00376547, Final residual = 0.00023712, No Iterations 2
smoothSolver:  Solving for Uy, Initial residual = 0.00649465, Final residual = 0.000387743, No Iterations 2
GAMG:  Solving for p, Initial residual = 0.0327897, Final residual = 0.00228382, No Iterations 2
time step continuity errors : sum local = 0.828007, global = 0.00572306, cumulative = 1.83863
smoothSolver:  Solving for epsilon, Initial residual = 0.00266293, Final residual = 0.000131218, No Iterations 1
smoothSolver:  Solving for Rxx, Initial residual = 0.00337473, Final residual = 0.000279526, No Iterations 1
smoothSolver:  Solving for Rxy, Initial residual = 0.0111153, Final residual = 0.00106689, No Iterations 1
smoothSolver:  Solving for Ryy, Initial residual = 0.0151091, Final residual = 0.00143427, No Iterations 1
smoothSolver:  Solving for Rzz, Initial residual = 0.00353984, Final residual = 0.000289395, No Iterations 1
ExecutionTime = 1.69 s  ClockTime = 3 s

Time = 35

smoothSolver:  Solving for Ux, Initial residual = 0.00367646, Final residual = 0.000231629, No Iterations 2
smoothSolver:  Solving for Uy, Initial residual = 0.00630811, Final residual = 0.000375565, No Iterations 2
GAMG:  Solving for p, Initial residual = 0.0315879, Final residual = 0.00240843, No Iterations 2
time step continuity errors : sum local = 0.857588, global = 0.0090047, cumulative = 1.84764
smoothSolver:  Solving for epsilon, Initial residual = 0.00262815, Final residual = 0.000132056, No Iterations 1
smoothSolver:  Solving for Rxx, Initial residual = 0.00335961, Final residual = 0.000281986, No Iterations 1
smoothSolver:  Solving for Rxy, Initial residual = 0.0108903, Final residual = 0.0010482, No Iterations 1
smoothSolver:  Solving for Ryy, Initial residual = 0.0142244, Final residual = 0.00135591, No Iterations 1
smoothSolver:  Solving for Rzz, Initial residual = 0.00353159, Final residual = 0.000292209, No Iterations 1
ExecutionTime = 1.73 s  ClockTime = 3 s

Time = 36

smoothSolver:  Solving for Ux, Initial residual = 0.0035835, Final residual = 0.000226088, No Iterations 2
smoothSolver:  Solving for Uy, Initial residual = 0.00615273, Final residual = 0.000365796, No Iterations 2
GAMG:  Solving for p, Initial residual = 0.0307232, Final residual = 0.00247446, No Iterations 2
time step continuity errors : sum local = 0.863735, global = 0.0111566, cumulative = 1.85879
smoothSolver:  Solving for epsilon, Initial residual = 0.00257388, Final residual = 0.000130226, No Iterations 1
smoothSolver:  Solving for Rxx, Initial residual = 0.00335182, Final residual = 0.00028333, No Iterations 1
smoothSolver:  Solving for Rxy, Initial residual = 0.010689, Final residual = 0.00103012, No Iterations 1
smoothSolver:  Solving for Ryy, Initial residual = 0.013412, Final residual = 0.00128376, No Iterations 1
smoothSolver:  Solving for Rzz, Initial residual = 0.0035327, Final residual = 0.000294837, No Iterations 1
ExecutionTime = 1.77 s  ClockTime = 3 s

Time = 37

smoothSolver:  Solving for Ux, Initial residual = 0.00350303, Final residual = 0.000221322, No Iterations 2
smoothSolver:  Solving for Uy, Initial residual = 0.00603655, Final residual = 0.000358, No Iterations 2
GAMG:  Solving for p, Initial residual = 0.0299582, Final residual = 0.00260644, No Iterations 2
time step continuity errors : sum local = 0.891643, global = 0.0115263, cumulative = 1.87032
smoothSolver:  Solving for epsilon, Initial residual = 0.00252147, Final residual = 0.000131817, No Iterations 1
smoothSolver:  Solving for Rxx, Initial residual = 0.00334594, Final residual = 0.000285422, No Iterations 1
smoothSolver:  Solving for Rxy, Initial residual = 0.0104706, Final residual = 0.00101265, No Iterations 1
smoothSolver:  Solving for Ryy, Initial residual = 0.0126932, Final residual = 0.00121899, No Iterations 1
smoothSolver:  Solving for Rzz, Initial residual = 0.00353262, Final residual = 0.000298221, No Iterations 1
ExecutionTime = 1.81 s  ClockTime = 3 s

Time = 38

smoothSolver:  Solving for Ux, Initial residual = 0.00343932, Final residual = 0.000217569, No Iterations 2
smoothSolver:  Solving for Uy, Initial residual = 0.00597715, Final residual = 0.000353263, No Iterations 2
GAMG:  Solving for p, Initial residual = 0.0291202, Final residual = 0.00278421, No Iterations 2
time step continuity errors : sum local = 0.932827, global = 0.0114484, cumulative = 1.88177
smoothSolver:  Solving for epsilon, Initial residual = 0.00247565, Final residual = 0.000133227, No Iterations 1
smoothSolver:  Solving for Rxx, Initial residual = 0.00334114, Final residual = 0.000287289, No Iterations 1
smoothSolver:  Solving for Rxy, Initial residual = 0.0102799, Final residual = 0.000995167, No Iterations 1
smoothSolver:  Solving for Ryy, Initial residual = 0.0120211, Final residual = 0.00115838, No Iterations 1
smoothSolver:  Solving for Rzz, Initial residual = 0.00353713, Final residual = 0.000300961, No Iterations 1
ExecutionTime = 1.85 s  ClockTime = 3 s

Time = 39

smoothSolver:  Solving for Ux, Initial residual = 0.00338248, Final residual = 0.000214755, No Iterations 2
smoothSolver:  Solving for Uy, Initial residual = 0.00592472, Final residual = 0.00035022, No Iterations 2
GAMG:  Solving for p, Initial residual = 0.0283059, Final residual = 0.00219786, No Iterations 3
time step continuity errors : sum local = 0.721388, global = -0.00983751, cumulative = 1.87193
smoothSolver:  Solving for epsilon, Initial residual = 0.00245284, Final residual = 0.000134562, No Iterations 1
smoothSolver:  Solving for Rxx, Initial residual = 0.00334285, Final residual = 0.000289328, No Iterations 1
smoothSolver:  Solving for Rxy, Initial residual = 0.0100899, Final residual = 0.000980668, No Iterations 1
smoothSolver:  Solving for Ryy, Initial residual = 0.0114216, Final residual = 0.00110402, No Iterations 1
smoothSolver:  Solving for Rzz, Initial residual = 0.00354444, Final residual = 0.000304056, No Iterations 1
ExecutionTime = 1.89 s  ClockTime = 3 s

Time = 40

smoothSolver:  Solving for Ux, Initial residual = 0.00334629, Final residual = 0.000213583, No Iterations 2
smoothSolver:  Solving for Uy, Initial residual = 0.00595364, Final residual = 0.000353071, No Iterations 2
GAMG:  Solving for p, Initial residual = 0.0270293, Final residual = 0.00245428, No Iterations 2
time step continuity errors : sum local = 0.788615, global = -0.000770434, cumulative = 1.87116
smoothSolver:  Solving for epsilon, Initial residual = 0.00242768, Final residual = 0.000135409, No Iterations 1
smoothSolver:  Solving for Rxx, Initial residual = 0.00334146, Final residual = 0.00029126, No Iterations 1
smoothSolver:  Solving for Rxy, Initial residual = 0.00990465, Final residual = 0.000965162, No Iterations 1
smoothSolver:  Solving for Ryy, Initial residual = 0.0108647, Final residual = 0.00105304, No Iterations 1
smoothSolver:  Solving for Rzz, Initial residual = 0.00354614, Final residual = 0.000306803, No Iterations 1
ExecutionTime = 1.93 s  ClockTime = 3 s

Time = 41

smoothSolver:  Solving for Ux, Initial residual = 0.00332348, Final residual = 0.000213246, No Iterations 2
smoothSolver:  Solving for Uy, Initial residual = 0.00590711, Final residual = 0.000351108, No Iterations 2
GAMG:  Solving for p, Initial residual = 0.0261828, Final residual = 0.00260247, No Iterations 2
time step continuity errors : sum local = 0.819141, global = 0.00103837, cumulative = 1.8722
smoothSolver:  Solving for epsilon, Initial residual = 0.00239421, Final residual = 0.000135059, No Iterations 1
smoothSolver:  Solving for Rxx, Initial residual = 0.00333712, Final residual = 0.000292861, No Iterations 1
smoothSolver:  Solving for Rxy, Initial residual = 0.00974987, Final residual = 0.000950818, No Iterations 1
smoothSolver:  Solving for Ryy, Initial residual = 0.0103683, Final residual = 0.0010079, No Iterations 1
smoothSolver:  Solving for Rzz, Initial residual = 0.00355146, Final residual = 0.000309576, No Iterations 1
ExecutionTime = 1.98 s  ClockTime = 3 s

Time = 42

smoothSolver:  Solving for Ux, Initial residual = 0.00329943, Final residual = 0.000212606, No Iterations 2
smoothSolver:  Solving for Uy, Initial residual = 0.00586355, Final residual = 0.000347787, No Iterations 2
GAMG:  Solving for p, Initial residual = 0.0250318, Final residual = 0.002066, No Iterations 3
time step continuity errors : sum local = 0.637287, global = -0.0039401, cumulative = 1.86826
smoothSolver:  Solving for epsilon, Initial residual = 0.00235802, Final residual = 0.000135637, No Iterations 1
smoothSolver:  Solving for Rxx, Initial residual = 0.00333102, Final residual = 0.000294556, No Iterations 1
smoothSolver:  Solving for Rxy, Initial residual = 0.00955789, Final residual = 0.000935521, No Iterations 1
smoothSolver:  Solving for Ryy, Initial residual = 0.00990071, Final residual = 0.000964998, No Iterations 1
smoothSolver:  Solving for Rzz, Initial residual = 0.00355572, Final residual = 0.000312007, No Iterations 1
ExecutionTime = 2.02 s  ClockTime = 3 s

Time = 43

smoothSolver:  Solving for Ux, Initial residual = 0.00327795, Final residual = 0.000212186, No Iterations 2
smoothSolver:  Solving for Uy, Initial residual = 0.00576754, Final residual = 0.000340707, No Iterations 2
GAMG:  Solving for p, Initial residual = 0.0236949, Final residual = 0.00223235, No Iterations 2
time step continuity errors : sum local = 0.675727, global = 0.00283683, cumulative = 1.87109
smoothSolver:  Solving for epsilon, Initial residual = 0.00232264, Final residual = 0.00013572, No Iterations 1
smoothSolver:  Solving for Rxx, Initial residual = 0.00332461, Final residual = 0.000296263, No Iterations 1
smoothSolver:  Solving for Rxy, Initial residual = 0.00939784, Final residual = 0.000920829, No Iterations 1
smoothSolver:  Solving for Ryy, Initial residual = 0.00947773, Final residual = 0.000926593, No Iterations 1
smoothSolver:  Solving for Rzz, Initial residual = 0.00355909, Final residual = 0.000315012, No Iterations 1
ExecutionTime = 2.06 s  ClockTime = 3 s

Time = 44

smoothSolver:  Solving for Ux, Initial residual = 0.00327245, Final residual = 0.000212868, No Iterations 2
smoothSolver:  Solving for Uy, Initial residual = 0.00572454, Final residual = 0.000337675, No Iterations 2
GAMG:  Solving for p, Initial residual = 0.0229643, Final residual = 0.00228557, No Iterations 2
time step continuity errors : sum local = 0.679088, global = 0.00372181, cumulative = 1.87482
smoothSolver:  Solving for epsilon, Initial residual = 0.00228857, Final residual = 0.000135919, No Iterations 1
smoothSolver:  Solving for Rxx, Initial residual = 0.00332156, Final residual = 0.000298097, No Iterations 1
smoothSolver:  Solving for Rxy, Initial residual = 0.0092192, Final residual = 0.000906206, No Iterations 1
smoothSolver:  Solving for Ryy, Initial residual = 0.00907639, Final residual = 0.000890516, No Iterations 1
smoothSolver:  Solving for Rzz, Initial residual = 0.0035676, Final residual = 0.000317933, No Iterations 1
ExecutionTime = 2.1 s  ClockTime = 3 s

Time = 45

smoothSolver:  Solving for Ux, Initial residual = 0.00325773, Final residual = 0.000213016, No Iterations 2
smoothSolver:  Solving for Uy, Initial residual = 0.00565595, Final residual = 0.000333959, No Iterations 2
GAMG:  Solving for p, Initial residual = 0.0221233, Final residual = 0.00182645, No Iterations 3
time step continuity errors : sum local = 0.53238, global = -0.00370394, cumulative = 1.87111
smoothSolver:  Solving for epsilon, Initial residual = 0.00226203, Final residual = 0.000136688, No Iterations 1
smoothSolver:  Solving for Rxx, Initial residual = 0.00331475, Final residual = 0.000299585, No Iterations 1
smoothSolver:  Solving for Rxy, Initial residual = 0.00905299, Final residual = 0.000891508, No Iterations 1
smoothSolver:  Solving for Ryy, Initial residual = 0.00870158, Final residual = 0.000857229, No Iterations 1
smoothSolver:  Solving for Rzz, Initial residual = 0.0035748, Final residual = 0.000321016, No Iterations 1
ExecutionTime = 2.14 s  ClockTime = 3 s

Time = 46

smoothSolver:  Solving for Ux, Initial residual = 0.00324983, Final residual = 0.000212962, No Iterations 2
smoothSolver:  Solving for Uy, Initial residual = 0.00556558, Final residual = 0.000325757, No Iterations 2
GAMG:  Solving for p, Initial residual = 0.0211808, Final residual = 0.00177936, No Iterations 2
time step continuity errors : sum local = 0.508227, global = -0.00231193, cumulative = 1.8688
smoothSolver:  Solving for epsilon, Initial residual = 0.00223255, Final residual = 0.000137874, No Iterations 1
smoothSolver:  Solving for Rxx, Initial residual = 0.00330892, Final residual = 0.000301143, No Iterations 1
smoothSolver:  Solving for Rxy, Initial residual = 0.0088936, Final residual = 0.000877291, No Iterations 1
smoothSolver:  Solving for Ryy, Initial residual = 0.00836139, Final residual = 0.000828022, No Iterations 1
smoothSolver:  Solving for Rzz, Initial residual = 0.0035848, Final residual = 0.000324005, No Iterations 1
ExecutionTime = 2.18 s  ClockTime = 3 s

Time = 47

smoothSolver:  Solving for Ux, Initial residual = 0.00324788, Final residual = 0.000214062, No Iterations 2
smoothSolver:  Solving for Uy, Initial residual = 0.00552538, Final residual = 0.00032375, No Iterations 2
GAMG:  Solving for p, Initial residual = 0.0206275, Final residual = 0.00180759, No Iterations 2
time step continuity errors : sum local = 0.506061, global = -0.00182061, cumulative = 1.86698
smoothSolver:  Solving for epsilon, Initial residual = 0.00220794, Final residual = 0.000138288, No Iterations 1
smoothSolver:  Solving for Rxx, Initial residual = 0.00330439, Final residual = 0.00030263, No Iterations 1
smoothSolver:  Solving for Rxy, Initial residual = 0.00872854, Final residual = 0.000864069, No Iterations 1
smoothSolver:  Solving for Ryy, Initial residual = 0.00804837, Final residual = 0.000800193, No Iterations 1
smoothSolver:  Solving for Rzz, Initial residual = 0.00359368, Final residual = 0.000327014, No Iterations 1
ExecutionTime = 2.22 s  ClockTime = 3 s

Time = 48

smoothSolver:  Solving for Ux, Initial residual = 0.0032454, Final residual = 0.000214611, No Iterations 2
smoothSolver:  Solving for Uy, Initial residual = 0.00548698, Final residual = 0.000322875, No Iterations 2
GAMG:  Solving for p, Initial residual = 0.0199941, Final residual = 0.00176497, No Iterations 2
time step continuity errors : sum local = 0.484609, global = 0.000466475, cumulative = 1.86745
smoothSolver:  Solving for epsilon, Initial residual = 0.00218848, Final residual = 0.000139749, No Iterations 1
smoothSolver:  Solving for Rxx, Initial residual = 0.00330131, Final residual = 0.000303903, No Iterations 1
smoothSolver:  Solving for Rxy, Initial residual = 0.0085755, Final residual = 0.000850377, No Iterations 1
smoothSolver:  Solving for Ryy, Initial residual = 0.00776064, Final residual = 0.000774937, No Iterations 1
smoothSolver:  Solving for Rzz, Initial residual = 0.00360587, Final residual = 0.000329833, No Iterations 1
ExecutionTime = 2.27 s  ClockTime = 3 s

Time = 49

smoothSolver:  Solving for Ux, Initial residual = 0.00323733, Final residual = 0.00021532, No Iterations 2
smoothSolver:  Solving for Uy, Initial residual = 0.00550799, Final residual = 0.000323203, No Iterations 2
GAMG:  Solving for p, Initial residual = 0.0193536, Final residual = 0.00173783, No Iterations 2
time step continuity errors : sum local = 0.468381, global = 0.00103133, cumulative = 1.86848
smoothSolver:  Solving for epsilon, Initial residual = 0.00218232, Final residual = 0.000141076, No Iterations 1
smoothSolver:  Solving for Rxx, Initial residual = 0.00329641, Final residual = 0.000305225, No Iterations 1
smoothSolver:  Solving for Rxy, Initial residual = 0.00842463, Final residual = 0.000837758, No Iterations 1
smoothSolver:  Solving for Ryy, Initial residual = 0.00750084, Final residual = 7.84468e-05, No Iterations 2
smoothSolver:  Solving for Rzz, Initial residual = 0.00361812, Final residual = 0.0003326, No Iterations 1
ExecutionTime = 2.31 s  ClockTime = 3 s

Time = 50

smoothSolver:  Solving for Ux, Initial residual = 0.00324351, Final residual = 0.000216636, No Iterations 2
smoothSolver:  Solving for Uy, Initial residual = 0.00550162, Final residual = 0.000324667, No Iterations 2
GAMG:  Solving for p, Initial residual = 0.0188006, Final residual = 0.00172379, No Iterations 2
time step continuity errors : sum local = 0.456357, global = 0.000693251, cumulative = 1.86917
smoothSolver:  Solving for epsilon, Initial residual = 0.00217913, Final residual = 0.000141838, No Iterations 1
smoothSolver:  Solving for Rxx, Initial residual = 0.00329279, Final residual = 0.000306216, No Iterations 1
smoothSolver:  Solving for Rxy, Initial residual = 0.00828861, Final residual = 0.000825695, No Iterations 1
smoothSolver:  Solving for Ryy, Initial residual = 0.00722196, Final residual = 7.59962e-05, No Iterations 2
smoothSolver:  Solving for Rzz, Initial residual = 0.00363023, Final residual = 0.000335275, No Iterations 1
ExecutionTime = 2.35 s  ClockTime = 3 s

Time = 51

smoothSolver:  Solving for Ux, Initial residual = 0.00325758, Final residual = 0.000218219, No Iterations 2
smoothSolver:  Solving for Uy, Initial residual = 0.00552701, Final residual = 0.000328027, No Iterations 2
GAMG:  Solving for p, Initial residual = 0.0184749, Final residual = 0.00170454, No Iterations 2
time step continuity errors : sum local = 0.443258, global = 0.000415624, cumulative = 1.86959
smoothSolver:  Solving for epsilon, Initial residual = 0.00216996, Final residual = 0.000142238, No Iterations 1
smoothSolver:  Solving for Rxx, Initial residual = 0.00328851, Final residual = 0.000306911, No Iterations 1
smoothSolver:  Solving for Rxy, Initial residual = 0.00815229, Final residual = 0.000813688, No Iterations 1
smoothSolver:  Solving for Ryy, Initial residual = 0.00697264, Final residual = 7.37564e-05, No Iterations 2
smoothSolver:  Solving for Rzz, Initial residual = 0.00364319, Final residual = 0.000337659, No Iterations 1
ExecutionTime = 2.39 s  ClockTime = 3 s

Time = 52

smoothSolver:  Solving for Ux, Initial residual = 0.00326917, Final residual = 0.000219699, No Iterations 2
smoothSolver:  Solving for Uy, Initial residual = 0.00557186, Final residual = 0.000331719, No Iterations 2
GAMG:  Solving for p, Initial residual = 0.0179749, Final residual = 0.00171328, No Iterations 2
time step continuity errors : sum local = 0.437732, global = 0.000271953, cumulative = 1.86986
smoothSolver:  Solving for epsilon, Initial residual = 0.00216632, Final residual = 0.000142957, No Iterations 1
smoothSolver:  Solving for Rxx, Initial residual = 0.00328099, Final residual = 0.000307803, No Iterations 1
smoothSolver:  Solving for Rxy, Initial residual = 0.00801956, Final residual = 8.34629e-05, No Iterations 2
smoothSolver:  Solving for Ryy, Initial residual = 0.00675356, Final residual = 7.17011e-05, No Iterations 2
smoothSolver:  Solving for Rzz, Initial residual = 0.00365567, Final residual = 0.000340352, No Iterations 1
ExecutionTime = 2.43 s  ClockTime = 3 s

Time = 53

smoothSolver:  Solving for Ux, Initial residual = 0.00328294, Final residual = 0.000220912, No Iterations 2
smoothSolver:  Solving for Uy, Initial residual = 0.00558246, Final residual = 0.000335514, No Iterations 2
GAMG:  Solving for p, Initial residual = 0.0175735, Final residual = 0.00173915, No Iterations 2
time step continuity errors : sum local = 0.436988, global = 0.000771557, cumulative = 1.87063
smoothSolver:  Solving for epsilon, Initial residual = 0.00216193, Final residual = 0.000143583, No Iterations 1
smoothSolver:  Solving for Rxx, Initial residual = 0.00327414, Final residual = 0.000308478, No Iterations 1
smoothSolver:  Solving for Rxy, Initial residual = 0.00786923, Final residual = 8.2238e-05, No Iterations 2
smoothSolver:  Solving for Ryy, Initial residual = 0.00654053, Final residual = 6.97261e-05, No Iterations 2
smoothSolver:  Solving for Rzz, Initial residual = 0.00366843, Final residual = 0.000342876, No Iterations 1
ExecutionTime = 2.47 s  ClockTime = 4 s

Time = 54

smoothSolver:  Solving for Ux, Initial residual = 0.00329516, Final residual = 0.000221883, No Iterations 2
smoothSolver:  Solving for Uy, Initial residual = 0.00563102, Final residual = 0.000338925, No Iterations 2
GAMG:  Solving for p, Initial residual = 0.0171776, Final residual = 0.00140925, No Iterations 3
time step continuity errors : sum local = 0.348615, global = 0.00278458, cumulative = 1.87341
smoothSolver:  Solving for epsilon, Initial residual = 0.00215088, Final residual = 0.000143554, No Iterations 1
smoothSolver:  Solving for Rxx, Initial residual = 0.00327242, Final residual = 0.000309106, No Iterations 1
smoothSolver:  Solving for Rxy, Initial residual = 0.00772761, Final residual = 8.10104e-05, No Iterations 2
smoothSolver:  Solving for Ryy, Initial residual = 0.00635399, Final residual = 6.79072e-05, No Iterations 2
smoothSolver:  Solving for Rzz, Initial residual = 0.00368336, Final residual = 0.00034542, No Iterations 1
ExecutionTime = 2.51 s  ClockTime = 4 s

Time = 55

smoothSolver:  Solving for Ux, Initial residual = 0.00330392, Final residual = 0.000223027, No Iterations 2
smoothSolver:  Solving for Uy, Initial residual = 0.00569811, Final residual = 0.00034677, No Iterations 2
GAMG:  Solving for p, Initial residual = 0.0165525, Final residual = 0.00160778, No Iterations 2
time step continuity errors : sum local = 0.391793, global = 0.00184944, cumulative = 1.87526
smoothSolver:  Solving for epsilon, Initial residual = 0.00213548, Final residual = 0.00014331, No Iterations 1
smoothSolver:  Solving for Rxx, Initial residual = 0.00326962, Final residual = 0.000309812, No Iterations 1
smoothSolver:  Solving for Rxy, Initial residual = 0.00759184, Final residual = 7.985e-05, No Iterations 2
smoothSolver:  Solving for Ryy, Initial residual = 0.00617332, Final residual = 6.62197e-05, No Iterations 2
smoothSolver:  Solving for Rzz, Initial residual = 0.00369992, Final residual = 0.000347989, No Iterations 1
ExecutionTime = 2.56 s  ClockTime = 4 s

Time = 56

smoothSolver:  Solving for Ux, Initial residual = 0.00331, Final residual = 0.000223672, No Iterations 2
smoothSolver:  Solving for Uy, Initial residual = 0.00567062, Final residual = 0.00034657, No Iterations 2
GAMG:  Solving for p, Initial residual = 0.0163342, Final residual = 0.00129729, No Iterations 3
time step continuity errors : sum local = 0.311562, global = 0.00251892, cumulative = 1.87778
smoothSolver:  Solving for epsilon, Initial residual = 0.00211257, Final residual = 0.000143513, No Iterations 1
smoothSolver:  Solving for Rxx, Initial residual = 0.0032666, Final residual = 0.000310443, No Iterations 1
smoothSolver:  Solving for Rxy, Initial residual = 0.00746416, Final residual = 7.87661e-05, No Iterations 2
smoothSolver:  Solving for Ryy, Initial residual = 0.00600987, Final residual = 6.45712e-05, No Iterations 2
smoothSolver:  Solving for Rzz, Initial residual = 0.00371552, Final residual = 0.00035055, No Iterations 1
ExecutionTime = 2.6 s  ClockTime = 4 s

Time = 57

smoothSolver:  Solving for Ux, Initial residual = 0.00331251, Final residual = 0.000224115, No Iterations 2
smoothSolver:  Solving for Uy, Initial residual = 0.00564917, Final residual = 0.000345909, No Iterations 2
GAMG:  Solving for p, Initial residual = 0.015728, Final residual = 0.00154619, No Iterations 2
time step continuity errors : sum local = 0.365914, global = 0.00164061, cumulative = 1.87942
smoothSolver:  Solving for epsilon, Initial residual = 0.00208302, Final residual = 0.000143389, No Iterations 1
smoothSolver:  Solving for Rxx, Initial residual = 0.00326004, Final residual = 0.000310805, No Iterations 1
smoothSolver:  Solving for Rxy, Initial residual = 0.00734521, Final residual = 7.76783e-05, No Iterations 2
smoothSolver:  Solving for Ryy, Initial residual = 0.00584949, Final residual = 6.30758e-05, No Iterations 2
smoothSolver:  Solving for Rzz, Initial residual = 0.00373052, Final residual = 0.000352964, No Iterations 1
ExecutionTime = 2.64 s  ClockTime = 4 s

Time = 58

smoothSolver:  Solving for Ux, Initial residual = 0.00331058, Final residual = 0.000224645, No Iterations 2
smoothSolver:  Solving for Uy, Initial residual = 0.00559107, Final residual = 0.000344028, No Iterations 2
GAMG:  Solving for p, Initial residual = 0.0152623, Final residual = 0.00123099, No Iterations 3
time step continuity errors : sum local = 0.286931, global = 0.00276639, cumulative = 1.88219
smoothSolver:  Solving for epsilon, Initial residual = 0.00205779, Final residual = 0.000142974, No Iterations 1
smoothSolver:  Solving for Rxx, Initial residual = 0.00325055, Final residual = 0.000311151, No Iterations 1
smoothSolver:  Solving for Rxy, Initial residual = 0.00722961, Final residual = 7.67704e-05, No Iterations 2
smoothSolver:  Solving for Ryy, Initial residual = 0.00570032, Final residual = 6.16722e-05, No Iterations 2
smoothSolver:  Solving for Rzz, Initial residual = 0.00374181, Final residual = 0.000355544, No Iterations 1
ExecutionTime = 2.68 s  ClockTime = 4 s

Time = 59

smoothSolver:  Solving for Ux, Initial residual = 0.00330799, Final residual = 0.000224896, No Iterations 2
smoothSolver:  Solving for Uy, Initial residual = 0.00552682, Final residual = 0.000340736, No Iterations 2
GAMG:  Solving for p, Initial residual = 0.0145734, Final residual = 0.00117453, No Iterations 3
time step continuity errors : sum local = 0.269894, global = 0.00234761, cumulative = 1.88454
smoothSolver:  Solving for epsilon, Initial residual = 0.00202355, Final residual = 0.000142617, No Iterations 1
smoothSolver:  Solving for Rxx, Initial residual = 0.00323935, Final residual = 0.000311083, No Iterations 1
smoothSolver:  Solving for Rxy, Initial residual = 0.00712242, Final residual = 7.58389e-05, No Iterations 2
smoothSolver:  Solving for Ryy, Initial residual = 0.00555983, Final residual = 6.03481e-05, No Iterations 2
smoothSolver:  Solving for Rzz, Initial residual = 0.00375146, Final residual = 0.000357409, No Iterations 1
ExecutionTime = 2.73 s  ClockTime = 4 s

Time = 60

smoothSolver:  Solving for Ux, Initial residual = 0.00330577, Final residual = 0.000225214, No Iterations 2
smoothSolver:  Solving for Uy, Initial residual = 0.00545091, Final residual = 0.000336972, No Iterations 2
GAMG:  Solving for p, Initial residual = 0.0141336, Final residual = 0.00113455, No Iterations 3
time step continuity errors : sum local = 0.257274, global = 0.00187801, cumulative = 1.88642
smoothSolver:  Solving for epsilon, Initial residual = 0.00199371, Final residual = 0.000141867, No Iterations 1
smoothSolver:  Solving for Rxx, Initial residual = 0.00322789, Final residual = 0.000310911, No Iterations 1
smoothSolver:  Solving for Rxy, Initial residual = 0.00701993, Final residual = 7.4996e-05, No Iterations 2
smoothSolver:  Solving for Ryy, Initial residual = 0.00542754, Final residual = 5.90669e-05, No Iterations 2
smoothSolver:  Solving for Rzz, Initial residual = 0.00376122, Final residual = 0.000359164, No Iterations 1
ExecutionTime = 2.77 s  ClockTime = 4 s

Time = 61

smoothSolver:  Solving for Ux, Initial residual = 0.00330239, Final residual = 0.000225407, No Iterations 2
smoothSolver:  Solving for Uy, Initial residual = 0.00540087, Final residual = 0.000333997, No Iterations 2
GAMG:  Solving for p, Initial residual = 0.0136344, Final residual = 0.0011999, No Iterations 3
time step continuity errors : sum local = 0.268719, global = 0.00145563, cumulative = 1.88787
smoothSolver:  Solving for epsilon, Initial residual = 0.00195893, Final residual = 0.000140542, No Iterations 1
smoothSolver:  Solving for Rxx, Initial residual = 0.00321513, Final residual = 0.000310963, No Iterations 1
smoothSolver:  Solving for Rxy, Initial residual = 0.00691977, Final residual = 7.4166e-05, No Iterations 2
smoothSolver:  Solving for Ryy, Initial residual = 0.0053054, Final residual = 5.78867e-05, No Iterations 2
smoothSolver:  Solving for Rzz, Initial residual = 0.00376684, Final residual = 0.000361276, No Iterations 1
ExecutionTime = 2.81 s  ClockTime = 4 s

Time = 62

smoothSolver:  Solving for Ux, Initial residual = 0.00330165, Final residual = 0.000225637, No Iterations 2
smoothSolver:  Solving for Uy, Initial residual = 0.00535308, Final residual = 0.000331748, No Iterations 2
GAMG:  Solving for p, Initial residual = 0.0131607, Final residual = 0.00124704, No Iterations 3
time step continuity errors : sum local = 0.27608, global = 0.00100728, cumulative = 1.88888
smoothSolver:  Solving for epsilon, Initial residual = 0.00192545, Final residual = 0.000140057, No Iterations 1
smoothSolver:  Solving for Rxx, Initial residual = 0.00320033, Final residual = 0.0003107, No Iterations 1
smoothSolver:  Solving for Rxy, Initial residual = 0.006825, Final residual = 7.33414e-05, No Iterations 2
smoothSolver:  Solving for Ryy, Initial residual = 0.0051928, Final residual = 5.67567e-05, No Iterations 2
smoothSolver:  Solving for Rzz, Initial residual = 0.00377228, Final residual = 0.000362865, No Iterations 1
ExecutionTime = 2.85 s  ClockTime = 4 s

Time = 63

smoothSolver:  Solving for Ux, Initial residual = 0.0033005, Final residual = 0.00022577, No Iterations 2
smoothSolver:  Solving for Uy, Initial residual = 0.00531806, Final residual = 0.000330701, No Iterations 2
GAMG:  Solving for p, Initial residual = 0.0127871, Final residual = 0.00127739, No Iterations 3
time step continuity errors : sum local = 0.279857, global = 0.000705671, cumulative = 1.88958
smoothSolver:  Solving for epsilon, Initial residual = 0.00189567, Final residual = 0.000138698, No Iterations 1
smoothSolver:  Solving for Rxx, Initial residual = 0.00318706, Final residual = 0.00031058, No Iterations 1
smoothSolver:  Solving for Rxy, Initial residual = 0.00673445, Final residual = 7.25746e-05, No Iterations 2
smoothSolver:  Solving for Ryy, Initial residual = 0.00508084, Final residual = 5.57004e-05, No Iterations 2
smoothSolver:  Solving for Rzz, Initial residual = 0.00377706, Final residual = 0.000364519, No Iterations 1
ExecutionTime = 2.9 s  ClockTime = 4 s

Time = 64

smoothSolver:  Solving for Ux, Initial residual = 0.00329574, Final residual = 0.000225807, No Iterations 2
smoothSolver:  Solving for Uy, Initial residual = 0.00532268, Final residual = 0.000331189, No Iterations 2
GAMG:  Solving for p, Initial residual = 0.0123872, Final residual = 0.00114617, No Iterations 4
time step continuity errors : sum local = 0.248735, global = -0.000413153, cumulative = 1.88917
smoothSolver:  Solving for epsilon, Initial residual = 0.00186481, Final residual = 0.000136992, No Iterations 1
smoothSolver:  Solving for Rxx, Initial residual = 0.00317203, Final residual = 0.000310483, No Iterations 1
smoothSolver:  Solving for Rxy, Initial residual = 0.00664855, Final residual = 7.18097e-05, No Iterations 2
smoothSolver:  Solving for Ryy, Initial residual = 0.00497707, Final residual = 5.46818e-05, No Iterations 2
smoothSolver:  Solving for Rzz, Initial residual = 0.00377779, Final residual = 0.000366055, No Iterations 1
ExecutionTime = 2.94 s  ClockTime = 4 s

Time = 65

smoothSolver:  Solving for Ux, Initial residual = 0.00329586, Final residual = 0.000225951, No Iterations 2
smoothSolver:  Solving for Uy, Initial residual = 0.00531329, Final residual = 0.000333067, No Iterations 2
GAMG:  Solving for p, Initial residual = 0.0119534, Final residual = 0.00118352, No Iterations 3
time step continuity errors : sum local = 0.254501, global = -0.000441666, cumulative = 1.88873
smoothSolver:  Solving for epsilon, Initial residual = 0.00183521, Final residual = 0.000135979, No Iterations 1
smoothSolver:  Solving for Rxx, Initial residual = 0.00315844, Final residual = 0.000310339, No Iterations 1
smoothSolver:  Solving for Rxy, Initial residual = 0.00656939, Final residual = 7.10076e-05, No Iterations 2
smoothSolver:  Solving for Ryy, Initial residual = 0.00487823, Final residual = 5.37066e-05, No Iterations 2
smoothSolver:  Solving for Rzz, Initial residual = 0.00377866, Final residual = 0.000367644, No Iterations 1
ExecutionTime = 2.98 s  ClockTime = 4 s

Time = 66

smoothSolver:  Solving for Ux, Initial residual = 0.00329082, Final residual = 0.000225974, No Iterations 2
smoothSolver:  Solving for Uy, Initial residual = 0.00530042, Final residual = 0.000333378, No Iterations 2
GAMG:  Solving for p, Initial residual = 0.0116142, Final residual = 0.00103881, No Iterations 4
time step continuity errors : sum local = 0.221505, global = -0.000816273, cumulative = 1.88791
smoothSolver:  Solving for epsilon, Initial residual = 0.00181382, Final residual = 0.000135202, No Iterations 1
smoothSolver:  Solving for Rxx, Initial residual = 0.00314564, Final residual = 0.000310152, No Iterations 1
smoothSolver:  Solving for Rxy, Initial residual = 0.00648602, Final residual = 7.02542e-05, No Iterations 2
smoothSolver:  Solving for Ryy, Initial residual = 0.00478636, Final residual = 5.27777e-05, No Iterations 2
smoothSolver:  Solving for Rzz, Initial residual = 0.00377961, Final residual = 0.000369174, No Iterations 1
ExecutionTime = 3.03 s  ClockTime = 4 s

Time = 67

smoothSolver:  Solving for Ux, Initial residual = 0.0032849, Final residual = 0.000225937, No Iterations 2
smoothSolver:  Solving for Uy, Initial residual = 0.00530512, Final residual = 0.000334508, No Iterations 2
GAMG:  Solving for p, Initial residual = 0.0111393, Final residual = 0.00106292, No Iterations 3
time step continuity errors : sum local = 0.224958, global = -0.00106111, cumulative = 1.88685
smoothSolver:  Solving for epsilon, Initial residual = 0.00179304, Final residual = 0.000134367, No Iterations 1
smoothSolver:  Solving for Rxx, Initial residual = 0.00313309, Final residual = 0.000309995, No Iterations 1
smoothSolver:  Solving for Rxy, Initial residual = 0.00640884, Final residual = 6.95278e-05, No Iterations 2
smoothSolver:  Solving for Ryy, Initial residual = 0.00469806, Final residual = 5.18827e-05, No Iterations 2
smoothSolver:  Solving for Rzz, Initial residual = 0.003783, Final residual = 0.000370577, No Iterations 1
ExecutionTime = 3.07 s  ClockTime = 4 s

Time = 68

smoothSolver:  Solving for Ux, Initial residual = 0.0032797, Final residual = 0.000226109, No Iterations 2
smoothSolver:  Solving for Uy, Initial residual = 0.00526988, Final residual = 0.000334003, No Iterations 2
GAMG:  Solving for p, Initial residual = 0.0107536, Final residual = 0.00103828, No Iterations 3
time step continuity errors : sum local = 0.218116, global = -0.00133165, cumulative = 1.88552
smoothSolver:  Solving for epsilon, Initial residual = 0.00176724, Final residual = 0.000133603, No Iterations 1
smoothSolver:  Solving for Rxx, Initial residual = 0.00312298, Final residual = 0.000309804, No Iterations 1
smoothSolver:  Solving for Rxy, Initial residual = 0.00633563, Final residual = 6.87619e-05, No Iterations 2
smoothSolver:  Solving for Ryy, Initial residual = 0.00461346, Final residual = 5.1039e-05, No Iterations 2
smoothSolver:  Solving for Rzz, Initial residual = 0.00378645, Final residual = 0.000371967, No Iterations 1
ExecutionTime = 3.11 s  ClockTime = 4 s

Time = 69

smoothSolver:  Solving for Ux, Initial residual = 0.00327444, Final residual = 0.000226209, No Iterations 2
smoothSolver:  Solving for Uy, Initial residual = 0.0052528, Final residual = 0.000333636, No Iterations 2
GAMG:  Solving for p, Initial residual = 0.0104072, Final residual = 0.0010009, No Iterations 3
time step continuity errors : sum local = 0.208743, global = -0.00149084, cumulative = 1.88403
smoothSolver:  Solving for epsilon, Initial residual = 0.00174272, Final residual = 0.00013252, No Iterations 1
smoothSolver:  Solving for Rxx, Initial residual = 0.00311308, Final residual = 0.00030965, No Iterations 1
smoothSolver:  Solving for Rxy, Initial residual = 0.00626069, Final residual = 6.80938e-05, No Iterations 2
smoothSolver:  Solving for Ryy, Initial residual = 0.00453367, Final residual = 5.02161e-05, No Iterations 2
smoothSolver:  Solving for Rzz, Initial residual = 0.0037929, Final residual = 0.000373445, No Iterations 1
ExecutionTime = 3.15 s  ClockTime = 4 s

Time = 70

smoothSolver:  Solving for Ux, Initial residual = 0.00326963, Final residual = 0.000226398, No Iterations 2
smoothSolver:  Solving for Uy, Initial residual = 0.00523441, Final residual = 0.00033319, No Iterations 2
GAMG:  Solving for p, Initial residual = 0.0100413, Final residual = 0.000952064, No Iterations 3
time step continuity errors : sum local = 0.197185, global = -0.00156592, cumulative = 1.88246
smoothSolver:  Solving for epsilon, Initial residual = 0.00171626, Final residual = 0.00013159, No Iterations 1
smoothSolver:  Solving for Rxx, Initial residual = 0.00310552, Final residual = 0.000309274, No Iterations 1
smoothSolver:  Solving for Rxy, Initial residual = 0.00619556, Final residual = 6.74283e-05, No Iterations 2
smoothSolver:  Solving for Ryy, Initial residual = 0.00445682, Final residual = 4.94431e-05, No Iterations 2
smoothSolver:  Solving for Rzz, Initial residual = 0.0037994, Final residual = 0.000374752, No Iterations 1
ExecutionTime = 3.2 s  ClockTime = 4 s

Time = 71

smoothSolver:  Solving for Ux, Initial residual = 0.00326248, Final residual = 0.000226485, No Iterations 2
smoothSolver:  Solving for Uy, Initial residual = 0.00520475, Final residual = 0.000332277, No Iterations 2
GAMG:  Solving for p, Initial residual = 0.00972771, Final residual = 0.000887267, No Iterations 3
time step continuity errors : sum local = 0.182523, global = -0.00159613, cumulative = 1.88087
smoothSolver:  Solving for epsilon, Initial residual = 0.00168769, Final residual = 0.000130287, No Iterations 1
smoothSolver:  Solving for Rxx, Initial residual = 0.00309644, Final residual = 0.000308956, No Iterations 1
smoothSolver:  Solving for Rxy, Initial residual = 0.00613083, Final residual = 6.67973e-05, No Iterations 2
smoothSolver:  Solving for Ryy, Initial residual = 0.00438177, Final residual = 4.86992e-05, No Iterations 2
smoothSolver:  Solving for Rzz, Initial residual = 0.00380726, Final residual = 0.000376015, No Iterations 1
ExecutionTime = 3.24 s  ClockTime = 4 s

Time = 72

smoothSolver:  Solving for Ux, Initial residual = 0.0032562, Final residual = 0.000226471, No Iterations 2
smoothSolver:  Solving for Uy, Initial residual = 0.00517807, Final residual = 0.000331122, No Iterations 2
GAMG:  Solving for p, Initial residual = 0.00946225, Final residual = 0.000812348, No Iterations 3
time step continuity errors : sum local = 0.166024, global = -0.00159036, cumulative = 1.87928
smoothSolver:  Solving for epsilon, Initial residual = 0.00166033, Final residual = 0.00012926, No Iterations 1
smoothSolver:  Solving for Rxx, Initial residual = 0.00308638, Final residual = 0.000308534, No Iterations 1
smoothSolver:  Solving for Rxy, Initial residual = 0.00606538, Final residual = 6.61917e-05, No Iterations 2
smoothSolver:  Solving for Ryy, Initial residual = 0.0043122, Final residual = 4.79735e-05, No Iterations 2
smoothSolver:  Solving for Rzz, Initial residual = 0.00381269, Final residual = 0.000377001, No Iterations 1
ExecutionTime = 3.28 s  ClockTime = 5 s

Time = 73

smoothSolver:  Solving for Ux, Initial residual = 0.00325195, Final residual = 0.000226501, No Iterations 2
smoothSolver:  Solving for Uy, Initial residual = 0.00515636, Final residual = 0.000329833, No Iterations 2
GAMG:  Solving for p, Initial residual = 0.00920208, Final residual = 0.00073761, No Iterations 3
time step continuity errors : sum local = 0.149816, global = -0.00154382, cumulative = 1.87773
smoothSolver:  Solving for epsilon, Initial residual = 0.00163381, Final residual = 0.000128148, No Iterations 1
smoothSolver:  Solving for Rxx, Initial residual = 0.00307765, Final residual = 3.19498e-05, No Iterations 2
smoothSolver:  Solving for Rxy, Initial residual = 0.00600276, Final residual = 6.55682e-05, No Iterations 2
smoothSolver:  Solving for Ryy, Initial residual = 0.00424166, Final residual = 4.72976e-05, No Iterations 2
smoothSolver:  Solving for Rzz, Initial residual = 0.00381678, Final residual = 0.000378253, No Iterations 1
ExecutionTime = 3.33 s  ClockTime = 5 s

Time = 74

smoothSolver:  Solving for Ux, Initial residual = 0.00324729, Final residual = 0.00022642, No Iterations 2
smoothSolver:  Solving for Uy, Initial residual = 0.00513481, Final residual = 0.000328654, No Iterations 2
GAMG:  Solving for p, Initial residual = 0.0090138, Final residual = 0.000863348, No Iterations 2
time step continuity errors : sum local = 0.174383, global = -0.00268167, cumulative = 1.87505
smoothSolver:  Solving for epsilon, Initial residual = 0.00160771, Final residual = 0.00012704, No Iterations 1
smoothSolver:  Solving for Rxx, Initial residual = 0.00306667, Final residual = 3.19487e-05, No Iterations 2
smoothSolver:  Solving for Rxy, Initial residual = 0.00594405, Final residual = 6.49572e-05, No Iterations 2
smoothSolver:  Solving for Ryy, Initial residual = 0.00417352, Final residual = 4.66179e-05, No Iterations 2
smoothSolver:  Solving for Rzz, Initial residual = 0.00381939, Final residual = 0.000379887, No Iterations 1
ExecutionTime = 3.37 s  ClockTime = 5 s

Time = 75

smoothSolver:  Solving for Ux, Initial residual = 0.00324456, Final residual = 0.000226344, No Iterations 2
smoothSolver:  Solving for Uy, Initial residual = 0.0051101, Final residual = 0.000327857, No Iterations 2
GAMG:  Solving for p, Initial residual = 0.00892199, Final residual = 0.000879998, No Iterations 2
time step continuity errors : sum local = 0.176819, global = -0.00283461, cumulative = 1.87222
smoothSolver:  Solving for epsilon, Initial residual = 0.001581, Final residual = 0.000125841, No Iterations 1
smoothSolver:  Solving for Rxx, Initial residual = 0.00305307, Final residual = 3.19447e-05, No Iterations 2
smoothSolver:  Solving for Rxy, Initial residual = 0.00588147, Final residual = 6.43692e-05, No Iterations 2
smoothSolver:  Solving for Ryy, Initial residual = 0.00410998, Final residual = 4.59762e-05, No Iterations 2
smoothSolver:  Solving for Rzz, Initial residual = 0.00382419, Final residual = 0.000381459, No Iterations 1
ExecutionTime = 3.41 s  ClockTime = 5 s

Time = 76

smoothSolver:  Solving for Ux, Initial residual = 0.00323742, Final residual = 0.000226196, No Iterations 2
smoothSolver:  Solving for Uy, Initial residual = 0.00508006, Final residual = 0.000327361, No Iterations 2
GAMG:  Solving for p, Initial residual = 0.00873299, Final residual = 0.000832393, No Iterations 2
time step continuity errors : sum local = 0.166461, global = -0.00267182, cumulative = 1.86955
smoothSolver:  Solving for epsilon, Initial residual = 0.00155973, Final residual = 0.000124316, No Iterations 1
smoothSolver:  Solving for Rxx, Initial residual = 0.00304379, Final residual = 3.19381e-05, No Iterations 2
smoothSolver:  Solving for Rxy, Initial residual = 0.0058224, Final residual = 6.38042e-05, No Iterations 2
smoothSolver:  Solving for Ryy, Initial residual = 0.00405193, Final residual = 4.53402e-05, No Iterations 2
smoothSolver:  Solving for Rzz, Initial residual = 0.0038325, Final residual = 0.000382862, No Iterations 1
ExecutionTime = 3.45 s  ClockTime = 5 s

Time = 77

smoothSolver:  Solving for Ux, Initial residual = 0.00323175, Final residual = 0.000226116, No Iterations 2
smoothSolver:  Solving for Uy, Initial residual = 0.00507358, Final residual = 0.000327129, No Iterations 2
GAMG:  Solving for p, Initial residual = 0.00850613, Final residual = 0.000758651, No Iterations 2
time step continuity errors : sum local = 0.151063, global = -0.00245133, cumulative = 1.86709
smoothSolver:  Solving for epsilon, Initial residual = 0.00153718, Final residual = 0.000123231, No Iterations 1
smoothSolver:  Solving for Rxx, Initial residual = 0.00303794, Final residual = 3.19328e-05, No Iterations 2
smoothSolver:  Solving for Rxy, Initial residual = 0.00576721, Final residual = 6.32716e-05, No Iterations 2
smoothSolver:  Solving for Ryy, Initial residual = 0.00399546, Final residual = 4.47432e-05, No Iterations 2
smoothSolver:  Solving for Rzz, Initial residual = 0.00384305, Final residual = 3.96813e-05, No Iterations 2
ExecutionTime = 3.49 s  ClockTime = 5 s

Time = 78

smoothSolver:  Solving for Ux, Initial residual = 0.00322875, Final residual = 0.000225967, No Iterations 2
smoothSolver:  Solving for Uy, Initial residual = 0.00505867, Final residual = 0.000326598, No Iterations 2
GAMG:  Solving for p, Initial residual = 0.00828863, Final residual = 0.000677297, No Iterations 2
time step continuity errors : sum local = 0.134309, global = -0.00222458, cumulative = 1.86487
smoothSolver:  Solving for epsilon, Initial residual = 0.00151377, Final residual = 0.000121746, No Iterations 1
smoothSolver:  Solving for Rxx, Initial residual = 0.00303017, Final residual = 3.19362e-05, No Iterations 2
[...]
smoothSolver:  Solving for Ryy, Initial residual = 0.00038691, Final residual = 4.15653e-06, No Iterations 2
smoothSolver:  Solving for Rzz, Initial residual = 0.000400354, Final residual = 4.29003e-06, No Iterations 2
ExecutionTime = 56.2 s  ClockTime = 69 s

Time = 1258

smoothSolver:  Solving for Ux, Initial residual = 0.000187293, Final residual = 1.45221e-05, No Iterations 2
smoothSolver:  Solving for Uy, Initial residual = 0.00126853, Final residual = 9.7602e-05, No Iterations 2
GAMG:  Solving for p, Initial residual = 0.000335737, Final residual = 3.2029e-05, No Iterations 2
time step continuity errors : sum local = 0.00539885, global = 0.000213469, cumulative = 2.76718
smoothSolver:  Solving for epsilon, Initial residual = 0.000145421, Final residual = 1.33073e-05, No Iterations 1
smoothSolver:  Solving for Rxx, Initial residual = 0.000301407, Final residual = 3.20206e-06, No Iterations 2
smoothSolver:  Solving for Rxy, Initial residual = 0.000353792, Final residual = 3.80935e-06, No Iterations 2
smoothSolver:  Solving for Ryy, Initial residual = 0.000384212, Final residual = 4.12646e-06, No Iterations 2
smoothSolver:  Solving for Rzz, Initial residual = 0.000397936, Final residual = 4.26562e-06, No Iterations 2
ExecutionTime = 56.24 s  ClockTime = 69 s

Time = 1259

smoothSolver:  Solving for Ux, Initial residual = 0.000185684, Final residual = 1.44038e-05, No Iterations 2
smoothSolver:  Solving for Uy, Initial residual = 0.00125057, Final residual = 9.61938e-05, No Iterations 2
GAMG:  Solving for p, Initial residual = 0.000333729, Final residual = 2.69714e-05, No Iterations 3
time step continuity errors : sum local = 0.00454659, global = -0.000304431, cumulative = 2.76688
smoothSolver:  Solving for epsilon, Initial residual = 0.00014447, Final residual = 1.32285e-05, No Iterations 1
smoothSolver:  Solving for Rxx, Initial residual = 0.000299341, Final residual = 3.181e-06, No Iterations 2
smoothSolver:  Solving for Rxy, Initial residual = 0.000351511, Final residual = 3.78416e-06, No Iterations 2
smoothSolver:  Solving for Ryy, Initial residual = 0.000381326, Final residual = 4.09608e-06, No Iterations 2
smoothSolver:  Solving for Rzz, Initial residual = 0.000395482, Final residual = 4.24155e-06, No Iterations 2
ExecutionTime = 56.28 s  ClockTime = 69 s

Time = 1260

smoothSolver:  Solving for Ux, Initial residual = 0.000184323, Final residual = 1.42999e-05, No Iterations 2
smoothSolver:  Solving for Uy, Initial residual = 0.00123268, Final residual = 9.47581e-05, No Iterations 2
GAMG:  Solving for p, Initial residual = 0.000327127, Final residual = 3.17591e-05, No Iterations 2
time step continuity errors : sum local = 0.00535418, global = 0.000198837, cumulative = 2.76708
smoothSolver:  Solving for epsilon, Initial residual = 0.000143557, Final residual = 1.31522e-05, No Iterations 1
smoothSolver:  Solving for Rxx, Initial residual = 0.000297278, Final residual = 3.16038e-06, No Iterations 2
smoothSolver:  Solving for Rxy, Initial residual = 0.000349194, Final residual = 3.75912e-06, No Iterations 2
smoothSolver:  Solving for Ryy, Initial residual = 0.000378781, Final residual = 4.06805e-06, No Iterations 2
smoothSolver:  Solving for Rzz, Initial residual = 0.000393127, Final residual = 4.21688e-06, No Iterations 2
ExecutionTime = 56.32 s  ClockTime = 69 s

Time = 1261

smoothSolver:  Solving for Ux, Initial residual = 0.00018267, Final residual = 1.41785e-05, No Iterations 2
smoothSolver:  Solving for Uy, Initial residual = 0.00121529, Final residual = 9.33903e-05, No Iterations 2
GAMG:  Solving for p, Initial residual = 0.000325078, Final residual = 3.24884e-05, No Iterations 2
time step continuity errors : sum local = 0.00547749, global = 0.000371551, cumulative = 2.76745
smoothSolver:  Solving for epsilon, Initial residual = 0.000142629, Final residual = 1.30702e-05, No Iterations 1
smoothSolver:  Solving for Rxx, Initial residual = 0.000295326, Final residual = 3.14052e-06, No Iterations 2
smoothSolver:  Solving for Rxy, Initial residual = 0.000347054, Final residual = 3.73418e-06, No Iterations 2
smoothSolver:  Solving for Ryy, Initial residual = 0.000376402, Final residual = 4.03959e-06, No Iterations 2
smoothSolver:  Solving for Rzz, Initial residual = 0.000390942, Final residual = 4.19354e-06, No Iterations 2
ExecutionTime = 56.37 s  ClockTime = 69 s

Time = 1262

smoothSolver:  Solving for Ux, Initial residual = 0.000181185, Final residual = 1.40663e-05, No Iterations 2
smoothSolver:  Solving for Uy, Initial residual = 0.00119795, Final residual = 9.20516e-05, No Iterations 2
GAMG:  Solving for p, Initial residual = 0.000323063, Final residual = 2.87986e-05, No Iterations 3
time step continuity errors : sum local = 0.00485577, global = -0.00035921, cumulative = 2.76709
smoothSolver:  Solving for epsilon, Initial residual = 0.000141636, Final residual = 1.29826e-05, No Iterations 1
smoothSolver:  Solving for Rxx, Initial residual = 0.000293321, Final residual = 3.11983e-06, No Iterations 2
smoothSolver:  Solving for Rxy, Initial residual = 0.000344555, Final residual = 3.70981e-06, No Iterations 2
smoothSolver:  Solving for Ryy, Initial residual = 0.000373537, Final residual = 4.01153e-06, No Iterations 2
smoothSolver:  Solving for Rzz, Initial residual = 0.000388541, Final residual = 4.17045e-06, No Iterations 2
ExecutionTime = 56.41 s  ClockTime = 69 s

Time = 1263

smoothSolver:  Solving for Ux, Initial residual = 0.000179959, Final residual = 1.39624e-05, No Iterations 2
smoothSolver:  Solving for Uy, Initial residual = 0.00118064, Final residual = 9.07104e-05, No Iterations 2
GAMG:  Solving for p, Initial residual = 0.000315273, Final residual = 2.44662e-05, No Iterations 3
time step continuity errors : sum local = 0.00412575, global = -5.36157e-05, cumulative = 2.76703
smoothSolver:  Solving for epsilon, Initial residual = 0.000140702, Final residual = 1.28984e-05, No Iterations 1
smoothSolver:  Solving for Rxx, Initial residual = 0.000291405, Final residual = 3.09936e-06, No Iterations 2
smoothSolver:  Solving for Rxy, Initial residual = 0.000342194, Final residual = 3.68557e-06, No Iterations 2
smoothSolver:  Solving for Ryy, Initial residual = 0.000370899, Final residual = 3.98187e-06, No Iterations 2
smoothSolver:  Solving for Rzz, Initial residual = 0.000386265, Final residual = 4.14792e-06, No Iterations 2
ExecutionTime = 56.46 s  ClockTime = 69 s

Time = 1264

smoothSolver:  Solving for Ux, Initial residual = 0.000178299, Final residual = 1.38342e-05, No Iterations 2
smoothSolver:  Solving for Uy, Initial residual = 0.00116428, Final residual = 8.94535e-05, No Iterations 2
GAMG:  Solving for p, Initial residual = 0.000309051, Final residual = 2.64513e-05, No Iterations 2
time step continuity errors : sum local = 0.00446085, global = 0.000202857, cumulative = 2.76724
smoothSolver:  Solving for epsilon, Initial residual = 0.000139775, Final residual = 1.28165e-05, No Iterations 1
smoothSolver:  Solving for Rxx, Initial residual = 0.000289495, Final residual = 3.07924e-06, No Iterations 2
smoothSolver:  Solving for Rxy, Initial residual = 0.000339829, Final residual = 3.66036e-06, No Iterations 2
smoothSolver:  Solving for Ryy, Initial residual = 0.00036809, Final residual = 3.95266e-06, No Iterations 2
smoothSolver:  Solving for Rzz, Initial residual = 0.000383957, Final residual = 4.12467e-06, No Iterations 2
ExecutionTime = 56.51 s  ClockTime = 69 s

Time = 1265

smoothSolver:  Solving for Ux, Initial residual = 0.00017678, Final residual = 1.37214e-05, No Iterations 2
smoothSolver:  Solving for Uy, Initial residual = 0.00114888, Final residual = 8.82619e-05, No Iterations 2
GAMG:  Solving for p, Initial residual = 0.000309947, Final residual = 3.04374e-05, No Iterations 2
time step continuity errors : sum local = 0.00513345, global = 0.000334111, cumulative = 2.76757
smoothSolver:  Solving for epsilon, Initial residual = 0.000138847, Final residual = 1.27397e-05, No Iterations 1
smoothSolver:  Solving for Rxx, Initial residual = 0.000287568, Final residual = 3.06015e-06, No Iterations 2
smoothSolver:  Solving for Rxy, Initial residual = 0.000337545, Final residual = 3.63512e-06, No Iterations 2
smoothSolver:  Solving for Ryy, Initial residual = 0.000365412, Final residual = 3.92436e-06, No Iterations 2
smoothSolver:  Solving for Rzz, Initial residual = 0.000381735, Final residual = 4.10215e-06, No Iterations 2
ExecutionTime = 56.56 s  ClockTime = 69 s

Time = 1266

smoothSolver:  Solving for Ux, Initial residual = 0.000175296, Final residual = 1.36085e-05, No Iterations 2
smoothSolver:  Solving for Uy, Initial residual = 0.00113254, Final residual = 8.70073e-05, No Iterations 2
GAMG:  Solving for p, Initial residual = 0.000307636, Final residual = 2.77945e-05, No Iterations 3
time step continuity errors : sum local = 0.0046881, global = -0.000337962, cumulative = 2.76723
smoothSolver:  Solving for epsilon, Initial residual = 0.00013788, Final residual = 1.26593e-05, No Iterations 1
smoothSolver:  Solving for Rxx, Initial residual = 0.00028566, Final residual = 3.04055e-06, No Iterations 2
smoothSolver:  Solving for Rxy, Initial residual = 0.000335263, Final residual = 3.61024e-06, No Iterations 2
smoothSolver:  Solving for Ryy, Initial residual = 0.000362644, Final residual = 3.89597e-06, No Iterations 2
smoothSolver:  Solving for Rzz, Initial residual = 0.000379559, Final residual = 4.07928e-06, No Iterations 2
ExecutionTime = 56.61 s  ClockTime = 70 s

Time = 1267

smoothSolver:  Solving for Ux, Initial residual = 0.000174064, Final residual = 1.35009e-05, No Iterations 2
smoothSolver:  Solving for Uy, Initial residual = 0.00111607, Final residual = 8.57251e-05, No Iterations 2
GAMG:  Solving for p, Initial residual = 0.000299933, Final residual = 2.99349e-05, No Iterations 2
time step continuity errors : sum local = 0.00504973, global = 9.12359e-05, cumulative = 2.76732
smoothSolver:  Solving for epsilon, Initial residual = 0.000136985, Final residual = 1.25776e-05, No Iterations 1
smoothSolver:  Solving for Rxx, Initial residual = 0.000283822, Final residual = 3.02138e-06, No Iterations 2
smoothSolver:  Solving for Rxy, Initial residual = 0.00033294, Final residual = 3.58575e-06, No Iterations 2
smoothSolver:  Solving for Ryy, Initial residual = 0.000359867, Final residual = 3.86685e-06, No Iterations 2
smoothSolver:  Solving for Rzz, Initial residual = 0.000377455, Final residual = 4.05764e-06, No Iterations 2
ExecutionTime = 56.66 s  ClockTime = 70 s

Time = 1268

smoothSolver:  Solving for Ux, Initial residual = 0.000172318, Final residual = 1.33684e-05, No Iterations 2
smoothSolver:  Solving for Uy, Initial residual = 0.00110108, Final residual = 8.46058e-05, No Iterations 2
GAMG:  Solving for p, Initial residual = 0.000297543, Final residual = 2.27917e-05, No Iterations 3
time step continuity errors : sum local = 0.00384501, global = -0.00019491, cumulative = 2.76713
smoothSolver:  Solving for epsilon, Initial residual = 0.000136039, Final residual = 1.24918e-05, No Iterations 1
smoothSolver:  Solving for Rxx, Initial residual = 0.000282156, Final residual = 3.00247e-06, No Iterations 2
smoothSolver:  Solving for Rxy, Initial residual = 0.000330732, Final residual = 3.56151e-06, No Iterations 2
smoothSolver:  Solving for Ryy, Initial residual = 0.000357295, Final residual = 3.83796e-06, No Iterations 2
smoothSolver:  Solving for Rzz, Initial residual = 0.000375387, Final residual = 4.03553e-06, No Iterations 2
ExecutionTime = 56.71 s  ClockTime = 70 s

Time = 1269

smoothSolver:  Solving for Ux, Initial residual = 0.000170956, Final residual = 1.32596e-05, No Iterations 2
smoothSolver:  Solving for Uy, Initial residual = 0.00108637, Final residual = 8.34971e-05, No Iterations 2
GAMG:  Solving for p, Initial residual = 0.000292353, Final residual = 2.78162e-05, No Iterations 2
time step continuity errors : sum local = 0.00469319, global = 0.000147707, cumulative = 2.76728
smoothSolver:  Solving for epsilon, Initial residual = 0.000135131, Final residual = 1.24126e-05, No Iterations 1
smoothSolver:  Solving for Rxx, Initial residual = 0.000280315, Final residual = 2.98446e-06, No Iterations 2
smoothSolver:  Solving for Rxy, Initial residual = 0.000328344, Final residual = 3.53696e-06, No Iterations 2
smoothSolver:  Solving for Ryy, Initial residual = 0.000354535, Final residual = 3.80888e-06, No Iterations 2
smoothSolver:  Solving for Rzz, Initial residual = 0.000373245, Final residual = 4.01411e-06, No Iterations 2
ExecutionTime = 56.76 s  ClockTime = 70 s

Time = 1270

smoothSolver:  Solving for Ux, Initial residual = 0.000169271, Final residual = 1.31341e-05, No Iterations 2
smoothSolver:  Solving for Uy, Initial residual = 0.00107229, Final residual = 8.24712e-05, No Iterations 2
GAMG:  Solving for p, Initial residual = 0.000290818, Final residual = 2.239e-05, No Iterations 3
time step continuity errors : sum local = 0.00377796, global = -0.00018191, cumulative = 2.76709
smoothSolver:  Solving for epsilon, Initial residual = 0.000134187, Final residual = 1.23361e-05, No Iterations 1
smoothSolver:  Solving for Rxx, Initial residual = 0.000278512, Final residual = 2.96685e-06, No Iterations 2
smoothSolver:  Solving for Rxy, Initial residual = 0.000325998, Final residual = 3.51257e-06, No Iterations 2
smoothSolver:  Solving for Ryy, Initial residual = 0.000351888, Final residual = 3.78068e-06, No Iterations 2
smoothSolver:  Solving for Rzz, Initial residual = 0.00037112, Final residual = 3.99278e-06, No Iterations 2
ExecutionTime = 56.81 s  ClockTime = 70 s

Time = 1271

smoothSolver:  Solving for Ux, Initial residual = 0.000167928, Final residual = 1.30269e-05, No Iterations 2
smoothSolver:  Solving for Uy, Initial residual = 0.00105805, Final residual = 8.139e-05, No Iterations 2
GAMG:  Solving for p, Initial residual = 0.000285369, Final residual = 2.75826e-05, No Iterations 2
time step continuity errors : sum local = 0.00465465, global = 0.000131673, cumulative = 2.76723
smoothSolver:  Solving for epsilon, Initial residual = 0.000133289, Final residual = 1.22587e-05, No Iterations 1
smoothSolver:  Solving for Rxx, Initial residual = 0.000276897, Final residual = 2.9499e-06, No Iterations 2
smoothSolver:  Solving for Rxy, Initial residual = 0.000323873, Final residual = 3.48781e-06, No Iterations 2
smoothSolver:  Solving for Ryy, Initial residual = 0.000349459, Final residual = 3.75172e-06, No Iterations 2
smoothSolver:  Solving for Rzz, Initial residual = 0.00036919, Final residual = 3.97182e-06, No Iterations 2
ExecutionTime = 56.85 s  ClockTime = 70 s

Time = 1272

smoothSolver:  Solving for Ux, Initial residual = 0.000166229, Final residual = 1.29007e-05, No Iterations 2
smoothSolver:  Solving for Uy, Initial residual = 0.00104487, Final residual = 8.03955e-05, No Iterations 2
GAMG:  Solving for p, Initial residual = 0.00028419, Final residual = 2.17921e-05, No Iterations 3
time step continuity errors : sum local = 0.00367777, global = -0.000168142, cumulative = 2.76706
smoothSolver:  Solving for epsilon, Initial residual = 0.000132375, Final residual = 1.21821e-05, No Iterations 1
smoothSolver:  Solving for Rxx, Initial residual = 0.000275205, Final residual = 2.93216e-06, No Iterations 2
smoothSolver:  Solving for Rxy, Initial residual = 0.000321532, Final residual = 3.46356e-06, No Iterations 2
smoothSolver:  Solving for Ryy, Initial residual = 0.000346331, Final residual = 3.72187e-06, No Iterations 2
smoothSolver:  Solving for Rzz, Initial residual = 0.000367147, Final residual = 3.95129e-06, No Iterations 2
ExecutionTime = 56.9 s  ClockTime = 70 s

Time = 1273

smoothSolver:  Solving for Ux, Initial residual = 0.000164886, Final residual = 1.27921e-05, No Iterations 2
smoothSolver:  Solving for Uy, Initial residual = 0.00103115, Final residual = 7.93582e-05, No Iterations 2
GAMG:  Solving for p, Initial residual = 0.000279031, Final residual = 2.64737e-05, No Iterations 2
time step continuity errors : sum local = 0.00446837, global = 0.000109757, cumulative = 2.76717
smoothSolver:  Solving for epsilon, Initial residual = 0.0001315, Final residual = 1.21025e-05, No Iterations 1
smoothSolver:  Solving for Rxx, Initial residual = 0.000273555, Final residual = 2.91488e-06, No Iterations 2
smoothSolver:  Solving for Rxy, Initial residual = 0.000319206, Final residual = 3.43951e-06, No Iterations 2
smoothSolver:  Solving for Ryy, Initial residual = 0.000343539, Final residual = 3.69253e-06, No Iterations 2
smoothSolver:  Solving for Rzz, Initial residual = 0.00036512, Final residual = 3.93058e-06, No Iterations 2
ExecutionTime = 56.95 s  ClockTime = 70 s

Time = 1274

smoothSolver:  Solving for Ux, Initial residual = 0.000163176, Final residual = 1.26648e-05, No Iterations 2
smoothSolver:  Solving for Uy, Initial residual = 0.0010188, Final residual = 7.84228e-05, No Iterations 2
GAMG:  Solving for p, Initial residual = 0.000278033, Final residual = 2.08934e-05, No Iterations 3
time step continuity errors : sum local = 0.00352677, global = -0.000131218, cumulative = 2.76704
smoothSolver:  Solving for epsilon, Initial residual = 0.000130578, Final residual = 1.20223e-05, No Iterations 1
smoothSolver:  Solving for Rxx, Initial residual = 0.000271895, Final residual = 2.89827e-06, No Iterations 2
smoothSolver:  Solving for Rxy, Initial residual = 0.000316915, Final residual = 3.41588e-06, No Iterations 2
smoothSolver:  Solving for Ryy, Initial residual = 0.000341107, Final residual = 3.66483e-06, No Iterations 2
smoothSolver:  Solving for Rzz, Initial residual = 0.0003632, Final residual = 3.91015e-06, No Iterations 2
ExecutionTime = 57 s  ClockTime = 70 s

Time = 1275

smoothSolver:  Solving for Ux, Initial residual = 0.000161883, Final residual = 1.25561e-05, No Iterations 2
smoothSolver:  Solving for Uy, Initial residual = 0.00100602, Final residual = 7.74465e-05, No Iterations 2
GAMG:  Solving for p, Initial residual = 0.000272568, Final residual = 2.51166e-05, No Iterations 2
time step continuity errors : sum local = 0.00424013, global = 9.73969e-05, cumulative = 2.76713
smoothSolver:  Solving for epsilon, Initial residual = 0.000129678, Final residual = 1.19438e-05, No Iterations 1
smoothSolver:  Solving for Rxx, Initial residual = 0.00027029, Final residual = 2.88208e-06, No Iterations 2
smoothSolver:  Solving for Rxy, Initial residual = 0.00031455, Final residual = 3.39187e-06, No Iterations 2
smoothSolver:  Solving for Ryy, Initial residual = 0.000338101, Final residual = 3.63564e-06, No Iterations 2
smoothSolver:  Solving for Rzz, Initial residual = 0.000361263, Final residual = 3.89032e-06, No Iterations 2
ExecutionTime = 57.04 s  ClockTime = 70 s

Time = 1276

smoothSolver:  Solving for Ux, Initial residual = 0.000160172, Final residual = 1.24248e-05, No Iterations 2
smoothSolver:  Solving for Uy, Initial residual = 0.000994094, Final residual = 7.66001e-05, No Iterations 2
GAMG:  Solving for p, Initial residual = 0.000272224, Final residual = 1.94936e-05, No Iterations 3
time step continuity errors : sum local = 0.00329111, global = -4.59315e-05, cumulative = 2.76709
smoothSolver:  Solving for epsilon, Initial residual = 0.000128761, Final residual = 1.18663e-05, No Iterations 1
smoothSolver:  Solving for Rxx, Initial residual = 0.000268733, Final residual = 2.86539e-06, No Iterations 2
smoothSolver:  Solving for Rxy, Initial residual = 0.000312219, Final residual = 3.36695e-06, No Iterations 2
smoothSolver:  Solving for Ryy, Initial residual = 0.000335161, Final residual = 3.6062e-06, No Iterations 2
smoothSolver:  Solving for Rzz, Initial residual = 0.000359328, Final residual = 3.87017e-06, No Iterations 2
ExecutionTime = 57.09 s  ClockTime = 70 s


SIMPLE solution converged in 1276 iterations

streamLine streamlines write:
    seeded 10 particles
    Tracks:10
    Total samples:10880
    Writing data to "/home/ofuser/workingDir/my_software/my_openfoam/pitzDaily_with_Reynolds_stress/postProcessing/sets/streamlines/1276"
End

